
  EPA STORM WATER MANAGEMENT MODEL - VERSION 5.2 (Build 5.2.4)
  ------------------------------------------------------------

  
  ****************
  Analysis Options
  ****************
  Flow Units ............... CFS
  Process Models:
    Rainfall/Runoff ........ YES
    RDII ................... NO
    Snowmelt ............... NO
    Groundwater ............ NO
    Flow Routing ........... YES
    Ponding Allowed ........ NO
    Water Quality .......... NO
  Infiltration Method ...... GREEN_AMPT
  Flow Routing Method ...... DYNWAVE
  Surcharge Method ......... EXTRAN
  Starting Date ............ 01/01/2025 00:00:00
  Ending Date .............. 01/01/2025 23:45:00
  Antecedent Dry Days ...... 0.0
  Report Time Step ......... 00:00:05
  Wet Time Step ............ 00:00:05
  Dry Time Step ............ 00:00:05
  Routing Time Step ........ 5.00 sec
  Variable Time Step ....... NO
  Maximum Trials ........... 8
  Number of Threads ........ 4
  Head Tolerance ........... 0.005000 ft
  
  
  **************************        Volume         Depth
  Runoff Quantity Continuity     acre-feet        inches
  **************************     ---------       -------
  Total Precipitation ......       593.024         3.655
  Evaporation Loss .........         2.128         0.013
  Infiltration Loss ........       409.954         2.526
  Surface Runoff ...........       158.000         0.974
  Final Storage ............        22.944         0.141
  Continuity Error (%) .....        -0.000
  
  
  **************************        Volume        Volume
  Flow Routing Continuity        acre-feet      10^6 gal
  **************************     ---------     ---------
  Dry Weather Inflow .......         0.000         0.000
  Wet Weather Inflow .......       157.996        51.485
  Groundwater Inflow .......         0.000         0.000
  RDII Inflow ..............         0.000         0.000
  External Inflow ..........         0.000         0.000
  External Outflow .........       147.393        48.030
  Flooding Loss ............         9.103         2.966
  Evaporation Loss .........         0.007         0.002
  Exfiltration Loss ........         0.019         0.006
  Initial Stored Volume ....         2.289         0.746
  Final Stored Volume ......         3.748         1.221
  Continuity Error (%) .....         0.009
  
  
  ********************************
  Highest Flow Instability Indexes
  ********************************
  Link C63 (1)
  Link C49 (1)
  
  
  *********************************
  Most Frequent Nonconverging Nodes
  *********************************
  Node OF1 (0.29%)
  Node J9 (0.23%)
  Node J2 (0.05%)
  Node 3702 (0.01%)
  
  
  *************************
  Routing Time Step Summary
  *************************
  Minimum Time Step           :     5.00 sec
  Average Time Step           :     5.00 sec
  Maximum Time Step           :     5.00 sec
  % of Time in Steady State   :     0.00
  Average Iterations per Step :     2.06
  % of Steps Not Converging   :     0.29
  
  
  ***************************
  Subcatchment Runoff Summary
  ***************************
  
  ------------------------------------------------------------------------------------------------------------------------------
                            Total      Total      Total      Total     Imperv       Perv      Total       Total     Peak  Runoff
                           Precip      Runon       Evap      Infil     Runoff     Runoff     Runoff      Runoff   Runoff   Coeff
  Subcatchment                 in         in         in         in         in         in         in    10^6 gal      CFS
  ------------------------------------------------------------------------------------------------------------------------------
  11                         3.65       0.00       0.01       2.92       0.42       0.23       0.65        3.98   150.01   0.178
  12                         3.65       0.00       0.02       2.10       0.66       0.75       1.41        0.98    24.22   0.386
  13                         3.65       0.00       0.02       1.67       0.90       0.92       1.82        0.48    23.30   0.499
  15                         3.65       0.00       0.01       2.55       0.78       0.18       0.96        1.52    71.36   0.264
  16                         3.65       0.00       0.01       2.91       0.52       0.13       0.64        1.57    66.46   0.176
  17                         3.65       0.00       0.01       3.09       0.36       0.14       0.50        0.71    46.23   0.137
  18                         3.65       0.00       0.01       2.54       0.79       0.15       0.94        6.03   137.74   0.256
  2                          3.65       0.00       0.01       2.73       0.61       0.21       0.82        1.17    65.85   0.224
  21                         3.65       0.00       0.01       2.98       0.47       0.11       0.58        1.65    61.82   0.158
  22                         3.65       0.00       0.01       2.80       0.25       0.56       0.81        0.38    25.98   0.222
  23                         3.65       0.00       0.03       0.76       0.79       1.61       2.40       13.19   181.78   0.658
  24                         3.65       0.00       0.01       2.69       0.20       0.73       0.93        1.08    79.23   0.253
  27                         3.65       0.00       0.01       2.87       0.56       0.11       0.66        4.52   125.18   0.182
  38                         3.65       0.00       0.01       2.60       0.12       0.91       1.03        0.48    22.75   0.281
  39                         3.65       0.00       0.02       1.76       1.00       0.72       1.72        0.15    10.60   0.471
  4                          3.65       0.00       0.01       2.56       0.61       0.39       0.99        0.34    22.21   0.272
  40                         3.65       0.00       0.01       2.22       0.71       0.61       1.32        0.17    14.78   0.360
  41                         3.65       0.00       0.01       2.81       0.48       0.29       0.77        0.40    26.94   0.210
  42                         3.65       0.00       0.01       2.37       0.63       0.55       1.17        0.24    18.29   0.321
  43                         3.65       0.00       0.01       2.46       0.51       0.60       1.10        0.50    26.90   0.302
  44                         3.65       0.00       0.01       2.99       0.43       0.17       0.59        0.37    19.90   0.162
  45                         3.65       0.00       0.02       2.39       0.41       0.78       1.18        0.85    21.90   0.323
  48                         3.65       0.00       0.02       2.08       0.49       0.99       1.48        0.96    42.67   0.405
  49                         3.65       0.00       0.01       2.26       0.90       0.34       1.24        0.13     6.76   0.338
  5                          3.65       0.00       0.01       2.48       0.84       0.15       0.99        1.46    36.01   0.270
  50                         3.65       0.00       0.02       2.10       1.09       0.25       1.34        0.37    12.62   0.368
  51                         3.65       0.00       0.01       3.09       0.36       0.14       0.50        0.09     5.66   0.138
  52                         3.65       0.00       0.01       2.71       0.47       0.39       0.86        1.43    56.38   0.235
  53                         3.65       0.00       0.01       2.29       1.01       0.17       1.19        0.19    11.18   0.325
  6                          3.65       0.00       0.01       2.53       0.81       0.16       0.97        0.53    21.11   0.266
  7                          3.65       0.00       0.01       2.43       0.83       0.24       1.08        1.41    72.86   0.295
  8                          3.65       0.00       0.01       2.99       0.42       0.16       0.58        0.76    33.61   0.160
  9                          3.65       0.00       0.01       2.77       0.64       0.11       0.75        3.37   107.00   0.206
  

  ***********************
  LID Performance Summary
  ***********************

  --------------------------------------------------------------------------------------------------------------------
                                         Total      Evap     Infil   Surface    Drain    Initial     Final  Continuity
                                        Inflow      Loss      Loss   Outflow   Outflow   Storage   Storage       Error
  Subcatchment      LID Control             in        in        in        in        in        in        in           %
  --------------------------------------------------------------------------------------------------------------------
  
  ******************
  Node Depth Summary
  ******************
  
  ---------------------------------------------------------------------------------
                                 Average  Maximum  Maximum  Time of Max    Reported
                                   Depth    Depth      HGL   Occurrence   Max Depth
  Node                 Type         Feet     Feet     Feet  days hr:min        Feet
  ---------------------------------------------------------------------------------
  1390                 JUNCTION     0.37     1.69  2097.87     0  12:04        1.69
  1392                 JUNCTION     0.44     1.84  2095.83     0  12:05        1.84
  1427                 JUNCTION     0.34     2.68  2056.21     0  12:07        2.68
  1431                 JUNCTION     0.13     1.37  2122.51     0  12:03        1.37
  1444                 JUNCTION     0.14     0.57  2116.26     0  12:02        0.57
  1445                 JUNCTION     0.05     0.51  2127.94     0  12:00        0.51
  3360                 JUNCTION     0.24     1.99  2122.95     0  12:11        1.99
  3702                 JUNCTION     0.96     9.00  2061.45     0  12:15        9.00
  619                  JUNCTION     0.45     3.86  2063.99     0  12:11        3.86
  638                  JUNCTION     0.37     2.12  2067.66     0  12:02        2.12
  713                  JUNCTION     0.46     2.46  2088.19     0  12:10        2.46
  J1                   JUNCTION     0.04     0.36  2144.08     0  12:00        0.36
  J10                  JUNCTION     0.26     2.42  2064.04     0  12:11        2.42
  J11                  JUNCTION     0.25     1.66  2071.66     0  12:12        1.66
  J12                  JUNCTION     0.16     1.70  2158.37     0  12:05        1.70
  J13                  JUNCTION     0.12     1.26  2128.26     0  12:04        1.26
  J14                  JUNCTION     0.32     3.01  2064.01     0  12:10        3.01
  J15                  JUNCTION     0.81     4.15  2024.15     0  12:39        4.15
  J2                   JUNCTION     0.72     7.00  2056.00     0  12:10        7.00
  J3                   JUNCTION     0.40     5.15  2049.15     0  12:30        5.15
  J8                   JUNCTION     0.31     2.49  2068.49     0  12:01        2.49
  J9                   JUNCTION     1.31    10.00  2047.78     0  12:00       10.00
  OF1                  OUTFALL      0.75     3.00  2022.00     0  12:05        3.00
  10p                  STORAGE      0.12     0.72  2090.72     0  12:00        0.72
  11p                  STORAGE      0.10     0.95  2140.95     0  12:00        0.95
  134p                 STORAGE      0.10     0.80  2080.80     0  12:00        0.80
  13p                  STORAGE      0.12     1.20  2141.20     0  12:02        1.20
  14p                  STORAGE      0.19     1.39  2164.39     0  12:01        1.39
  151p                 STORAGE      0.25     1.84  2151.84     0  12:03        1.84
  152p                 STORAGE      0.19     2.20  2027.20     0  00:00        2.20
  153p                 STORAGE      3.55     6.25  2026.25     0  12:39        6.25
  17p                  STORAGE      0.73     3.78  2133.78     0  13:23        3.78
  18p                  STORAGE      0.12     1.66  2134.66     0  12:07        1.66
  19p                  STORAGE      0.07     0.81  2130.81     0  12:00        0.81
  1p                   STORAGE      0.19     0.96  2078.96     0  12:05        0.96
  20p                  STORAGE      0.08     0.64  2110.64     0  12:01        0.64
  24p                  STORAGE      0.26     1.91  2101.91     0  12:11        1.91
  29p                  STORAGE      0.14     1.20  2171.20     0  12:01        1.20
  2p                   STORAGE      0.36     2.00  2082.00     0  12:07        2.00
  30p                  STORAGE      0.16     2.03  2162.03     0  12:03        2.03
  31p                  STORAGE      0.10     0.99  2280.99     0  12:09        0.99
  32p                  STORAGE      0.10     1.02  2184.02     0  12:02        1.02
  33p                  STORAGE      0.08     0.74  2255.74     0  12:13        0.74
  34p                  STORAGE      0.22     1.63  2101.63     0  12:01        1.63
  4p                   STORAGE      0.53     3.26  2093.26     0  12:19        3.26
  5p                   STORAGE      0.16     1.27  2131.27     0  12:04        1.27
  69p                  STORAGE      0.07     0.54  2160.54     0  12:01        0.54
  8p                   STORAGE      0.05     0.59  2210.59     0  12:01        0.59
  9p                   STORAGE      0.10     1.07  2241.07     0  12:01        1.07
  
  
  *******************
  Node Inflow Summary
  *******************
  
  -------------------------------------------------------------------------------------------------
                                  Maximum  Maximum                  Lateral       Total        Flow
                                  Lateral    Total  Time of Max      Inflow      Inflow     Balance
                                   Inflow   Inflow   Occurrence      Volume      Volume       Error
  Node                 Type           CFS      CFS  days hr:min    10^6 gal    10^6 gal     Percent
  -------------------------------------------------------------------------------------------------
  1390                 JUNCTION      0.00    53.02     0  12:01           0        2.44       0.422
  1392                 JUNCTION     33.61   168.73     0  12:03        0.76         5.1       0.450
  1427                 JUNCTION    107.00   327.30     0  12:03        3.37        10.2       0.139
  1431                 JUNCTION      0.00    99.84     0  12:01           0        1.91       0.124
  1444                 JUNCTION      0.00    20.11     0  12:00           0        1.74       0.131
  1445                 JUNCTION      0.00    11.66     0  12:00           0       0.284       0.018
  3360                 JUNCTION      0.00   108.32     0  12:04           0        2.78       0.394
  3702                 JUNCTION    125.18   269.55     0  12:09        4.52        9.49       0.250
  619                  JUNCTION      0.00   210.45     0  12:07           0         8.9       0.112
  638                  JUNCTION     23.30    52.14     0  12:00        0.48         2.3       0.042
  713                  JUNCTION      0.00   113.08     0  12:09           0        5.05       0.100
  J1                   JUNCTION      6.76     6.76     0  12:00       0.131       0.131      -0.008
  J10                  JUNCTION     66.46   154.76     0  12:07        1.57         6.6       0.017
  J11                  JUNCTION      0.00   113.01     0  12:10           0        5.04       0.096
  J12                  JUNCTION      0.00    89.38     0  12:04           0        1.93      -0.064
  J13                  JUNCTION      0.00    92.16     0  12:03           0        2.21      -0.007
  J14                  JUNCTION      0.00    51.63     0  12:02           0         2.3       0.059
  J15                  JUNCTION      0.00   662.92     0  12:39           0          48       0.005
  J2                   JUNCTION      0.00   403.80     0  12:16           0        18.3       0.174
  J3                   JUNCTION    181.78   492.02     0  12:06        13.2        30.8       0.066
  J8                   JUNCTION     71.36    81.56     0  12:00        1.52        1.72       0.382
  J9                   JUNCTION      0.00   305.78     0  12:07           0        10.2       0.585
  OF1                  OUTFALL       0.00   662.95     0  12:39           0          48       0.000
  10p                  STORAGE      12.62    12.62     0  12:00       0.366       0.366       0.005
  11p                  STORAGE      26.94    26.94     0  12:00       0.403       0.403      -0.024
  134p                 STORAGE      11.18    11.18     0  12:00       0.193       0.193      -0.021
  13p                  STORAGE      22.21    78.12     0  12:00       0.338        1.51       0.029
  14p                  STORAGE      65.85    65.85     0  12:00        1.17        1.17       0.020
  151p                 STORAGE      62.04   100.45     0  12:00        1.52        2.23       0.049
  152p                 STORAGE     137.74   232.37     0  12:01        6.03        14.3      -0.499
  153p                 STORAGE      61.82   800.93     0  00:00        1.65        48.8       0.194
  17p                  STORAGE      36.01    36.01     0  12:00        1.46        1.46       0.003
  18p                  STORAGE      10.60    10.60     0  12:00       0.154       0.154       0.006
  19p                  STORAGE      14.78    14.78     0  12:00       0.173       0.173      -0.258
  1p                   STORAGE      24.22    33.98     0  12:00        0.98        1.82       0.037
  20p                  STORAGE      21.11    21.11     0  12:00       0.526       0.526      -0.048
  24p                  STORAGE       0.00    90.35     0  12:05           0        2.21       0.605
  29p                  STORAGE      46.23    46.23     0  12:00       0.713       0.713      -0.026
  2p                   STORAGE      42.67    42.67     0  12:00       0.964       0.964      -0.028
  30p                  STORAGE      79.23    79.23     0  12:00        1.08        1.08      -0.004
  31p                  STORAGE      25.98    25.98     0  12:00       0.384       0.384      -0.008
  32p                  STORAGE      22.75    22.75     0  12:00       0.481       0.481      -0.049
  33p                  STORAGE       0.00    14.81     0  12:09           0       0.377       0.267
  34p                  STORAGE      72.86    72.86     0  12:00        1.41        1.41      -0.131
  4p                   STORAGE     150.01   164.18     0  12:00        3.98        4.22       0.082
  5p                   STORAGE      19.90    43.14     0  12:00       0.366       0.869       0.488
  69p                  STORAGE      21.90    21.90     0  12:00        0.85        0.85      -0.120
  8p                   STORAGE      26.90    26.90     0  12:00       0.502       0.502      -0.037
  9p                   STORAGE      18.29    18.29     0  12:00       0.236       0.236       0.101
  
  
  **********************
  Node Surcharge Summary
  **********************
  
  Surcharging occurs when water rises above the top of the highest conduit.
  ---------------------------------------------------------------------
                                               Max. Height   Min. Depth
                                   Hours       Above Crown    Below Rim
  Node                 Type      Surcharged           Feet         Feet
  ---------------------------------------------------------------------
  3702                 JUNCTION        0.25          1.000        0.000
  J2                   JUNCTION        0.60          1.000        0.000
  J3                   JUNCTION        0.09          0.152        0.848
  J9                   JUNCTION        0.99          5.000        0.000
  
  
  *********************
  Node Flooding Summary
  *********************
  
  Flooding refers to all water that overflows a node, whether it ponds or not.
  --------------------------------------------------------------------------
                                                             Total   Maximum
                                 Maximum   Time of Max       Flood    Ponded
                        Hours       Rate    Occurrence      Volume     Depth
  Node                 Flooded       CFS   days hr:min    10^6 gal      Feet
  --------------------------------------------------------------------------
  3702                    0.14     58.11      0  12:15       0.082     0.000
  J2                      0.49     83.44      0  12:16       0.620     0.000
  J9                      0.77    206.18      0  12:07       2.146     0.000
  2p                      0.64     17.39      0  12:07       0.118     0.000
  
  
  **********************
  Storage Volume Summary
  **********************
  
  ------------------------------------------------------------------------------------------------
                         Average    Avg   Evap  Exfil     Maximum    Max    Time of Max    Maximum
                          Volume   Pcnt   Pcnt   Pcnt      Volume   Pcnt     Occurrence    Outflow
  Storage Unit          1000 ft³   Full   Loss   Loss    1000 ft³   Full    days hr:min        CFS
  ------------------------------------------------------------------------------------------------
  10p                      0.051    1.6    0.0    0.0       0.345   10.8       0  12:00      12.21
  11p                      0.080    1.4    0.0    0.0       1.029   18.1       0  12:00      26.22
  134p                     0.035    1.0    0.0    0.0       0.644   17.6       0  12:00      10.41
  13p                      0.109    0.4    0.0    0.0       2.756   11.2       0  12:02      75.98
  14p                      0.304    0.4    0.0    0.0       8.064    9.8       0  12:01      58.39
  151p                     2.664    2.7    0.0    0.0      20.562   20.9       0  12:03      92.16
  152p                     1.302    0.4    0.0    0.0      29.476    9.8       0  00:00     800.93
  153p                   122.289    8.9    0.0    0.0     558.609   40.4       0  12:39     694.72
  17p                      8.319    3.5    0.0    0.0      62.130   26.3       0  13:23       8.94
  18p                      0.121    2.3    0.0    0.0       3.766   71.1       0  12:07       4.98
  19p                      0.056    0.5    0.0    0.0       1.169   10.4       0  12:00      13.63
  1p                       0.368    0.4    0.0    0.0       3.874    4.7       0  12:05      32.63
  20p                      0.109    0.3    0.0    0.0       1.117    2.8       0  12:01      20.09
  24p                      0.952    5.7    0.0    0.0      10.831   65.1       0  12:11      75.47
  29p                      0.927    1.7    0.0    0.0       9.078   16.8       0  12:01      40.39
  2p                       2.825    9.6    0.0    0.0      29.563  100.0       0  12:07      11.54
  30p                      1.864    4.3    0.0    0.0      25.175   58.7       0  12:03      59.86
  31p                      1.499    3.9    0.0    0.1      14.637   38.4       0  12:09      14.81
  32p                      0.145    1.9    0.0    0.0       2.433   31.7       0  12:02      20.32
  33p                      0.075    0.1    0.0    0.0       1.404    1.6       0  12:13      14.46
  34p                      0.189    1.8    0.0    0.0       2.256   20.9       0  12:01      67.00
  4p                       9.767    6.6    0.0    0.0     107.500   72.9       0  12:19      85.36
  5p                       0.121    1.6    0.0    0.0       1.556   20.4       0  12:04      36.22
  69p                      0.110    1.7    0.0    0.0       0.856   13.1       0  12:01      20.45
  8p                       0.026    0.2    0.0    0.0       0.584    4.5       0  12:01      24.25
  9p                       0.055    0.8    0.0    0.0       1.436   20.7       0  12:01      14.93
  
  
  ***********************
  Outfall Loading Summary
  ***********************
  
  -----------------------------------------------------------
                         Flow       Avg       Max       Total
                         Freq      Flow      Flow      Volume
  Outfall Node           Pcnt       CFS       CFS    10^6 gal
  -----------------------------------------------------------
  OF1                   99.80     75.25    662.95      48.027
  -----------------------------------------------------------
  System                99.80     75.25    662.95      48.027
  
  
  ********************
  Link Flow Summary
  ********************
  
  -----------------------------------------------------------------------------
                                 Maximum  Time of Max   Maximum    Max/    Max/
                                  |Flow|   Occurrence   |Veloc|    Full    Full
  Link                 Type          CFS  days hr:min    ft/sec    Flow   Depth
  -----------------------------------------------------------------------------
  C1                   CONDUIT     58.39     0  12:01     11.08    0.06    0.16
  C10                  CONDUIT     24.25     0  12:01      3.17    0.09    0.46
  C11                  CONDUIT     85.35     0  12:20      9.07    1.01    0.71
  C12                  CONDUIT     36.22     0  12:04      6.64    0.22    0.46
  C13                  CONDUIT     14.93     0  12:01      5.78    0.56    0.77
  C14                  CONDUIT     12.21     0  12:01      2.96    0.07    0.42
  C15                  CONDUIT     67.00     0  12:01      7.25    0.09    0.26
  C16                  CONDUIT     13.63     0  12:00      4.33    0.09    0.30
  C17                  CONDUIT     47.57     0  12:04      5.13    0.06    0.18
  C18                  CONDUIT     40.39     0  12:01      7.28    0.09    0.25
  C19                  CONDUIT     10.41     0  12:00      2.17    0.09    0.41
  C2                   CONDUIT     75.98     0  12:02      5.90    0.33    0.64
  C20                  CONDUIT     92.16     0  12:03     13.65    0.10    0.19
  C21                  CONDUIT     14.81     0  12:09     11.60    0.45    0.43
  C22                  CONDUIT     74.48     0  12:01      6.82    0.71    0.81
  C23                  CONDUIT    305.78     0  12:07      6.94    0.61    0.95
  C24                  CONDUIT    101.41     0  12:43      8.90    1.02    0.64
  C25                  CONDUIT    113.01     0  12:10     11.03    0.19    0.26
  C26                  CONDUIT     20.45     0  12:02      2.75    0.08    0.62
  C27                  CONDUIT     75.47     0  12:11      3.97    0.22    0.66
  C28                  CONDUIT     97.49     0  12:11      4.10    0.14    0.62
  C29                  CONDUIT     32.63     0  12:05      6.06    0.06    0.26
  C3                   CONDUIT     26.22     0  12:00      9.28    0.12    0.28
  C30                  CONDUIT     11.54     0  12:06      5.69    1.07    0.74
  C31                  CONDUIT     51.63     0  12:02      7.64    0.55    0.63
  C32                  CONDUIT    154.14     0  12:10      4.08    0.30    0.90
  C33                  CONDUIT    112.87     0  12:12      5.51    0.30    0.68
  C34                  CONDUIT     20.32     0  12:02      5.89    0.14    0.34
  C35                  CONDUIT     14.46     0  12:13      4.91    0.08    0.30
  C36                  CONDUIT    662.95     0  12:39     13.81    1.47    1.00
  C38                  CONDUIT     59.86     0  12:03     10.52    0.51    0.47
  C39                  CONDUIT     88.92     0  12:05     11.44    0.10    0.23
  C4                   CONDUIT     93.94     0  12:03      4.44    0.46    0.80
  C47                  CHANNEL    163.57     0  12:05     13.77    0.23    0.64
  C49                  CONDUIT    197.88     0  12:11      6.62    0.90    0.89
  C5                   CONDUIT     20.09     0  12:01      2.00    0.03    0.38
  C50                  CONDUIT    212.05     0  12:23      7.50    1.26    1.00
  C51                  CONDUIT    342.08     0  12:25     13.58    1.29    1.00
  C52                  CONDUIT    449.68     0  12:30     21.41    0.98    1.00
  C53                  CONDUIT    800.93     0  00:00     13.40    0.49    0.75
  C6                   CONDUIT      4.98     0  12:03      9.08    0.98    0.76
  C61                  CONDUIT      6.74     0  12:00      9.03    0.02    0.11
  C62                  CONDUIT     90.35     0  12:05      5.28    0.04    0.26
  C63                  CONDUIT     59.41     0  12:06      6.27    0.37    0.86
  C7                   CONDUIT      8.93     0  12:30     16.18    0.98    0.79
  C8                   CONDUIT     11.43     0  12:00      3.30    0.02    0.18
  C9                   CONDUIT     19.72     0  12:02      1.87    0.03    0.38
  Duck_Pond_WEIR       WEIR       662.92     0  12:39                      0.48
  
  
  ***************************
  Flow Classification Summary
  ***************************
  
  -------------------------------------------------------------------------------------
                      Adjusted    ---------- Fraction of Time in Flow Class ---------- 
                       /Actual         Up    Down  Sub   Sup   Up    Down  Norm  Inlet 
  Conduit               Length    Dry  Dry   Dry   Crit  Crit  Crit  Crit  Ltd   Ctrl  
  -------------------------------------------------------------------------------------
  C1                      1.00   0.00  0.00  0.00  0.02  0.98  0.00  0.00  0.00  0.00
  C10                     1.00   0.00  0.00  0.00  1.00  0.00  0.00  0.00  0.97  0.00
  C11                     1.00   0.01  0.00  0.00  0.78  0.22  0.00  0.00  0.00  0.00
  C12                     1.00   0.01  0.00  0.00  0.99  0.01  0.00  0.00  0.99  0.00
  C13                     1.00   0.00  0.00  0.00  0.94  0.06  0.00  0.00  0.94  0.00
  C14                     1.00   0.00  0.01  0.00  0.99  0.00  0.00  0.00  0.99  0.00
  C15                     1.00   0.00  0.00  0.00  0.87  0.12  0.00  0.00  0.84  0.00
  C16                     1.00   0.00  0.00  0.00  0.95  0.05  0.00  0.00  0.93  0.00
  C17                     1.00   0.00  0.00  0.00  0.99  0.00  0.00  0.00  0.84  0.00
  C18                     1.00   0.01  0.00  0.00  0.94  0.06  0.00  0.00  0.90  0.00
  C19                     1.00   0.00  0.00  0.00  1.00  0.00  0.00  0.00  0.96  0.00
  C2                      1.00   0.00  0.00  0.00  0.91  0.08  0.00  0.00  0.82  0.00
  C20                     1.00   0.01  0.00  0.00  0.04  0.94  0.00  0.00  0.00  0.00
  C21                     1.00   0.01  0.00  0.00  0.02  0.97  0.00  0.00  0.00  0.00
  C22                     1.00   0.00  0.00  0.00  1.00  0.00  0.00  0.00  1.00  0.00
  C23                     1.00   0.00  0.00  0.00  1.00  0.00  0.00  0.00  0.92  0.00
  C24                     1.00   0.00  0.02  0.00  0.14  0.83  0.00  0.00  0.02  0.00
  C25                     1.00   0.01  0.00  0.00  0.08  0.91  0.00  0.00  0.00  0.00
  C26                     1.00   0.01  0.00  0.00  0.99  0.00  0.00  0.00  0.94  0.00
  C27                     1.00   0.00  0.07  0.00  0.93  0.00  0.00  0.00  0.93  0.00
  C28                     1.00   0.00  0.01  0.00  0.99  0.00  0.00  0.00  0.99  0.00
  C29                     1.00   0.00  0.00  0.00  0.79  0.21  0.00  0.00  1.00  0.00
  C3                      1.00   0.00  0.00  0.00  0.00  0.99  0.00  0.00  0.80  0.00
  C30                     1.00   0.00  0.00  0.00  0.94  0.06  0.00  0.00  0.00  0.00
  C31                     1.00   0.00  0.00  0.00  0.21  0.79  0.00  0.00  0.04  0.00
  C32                     1.00   0.00  0.00  0.00  1.00  0.00  0.00  0.00  0.92  0.00
  C33                     1.00   0.00  0.02  0.00  0.98  0.00  0.00  0.00  0.81  0.00
  C34                     1.00   0.00  0.00  0.00  0.92  0.08  0.00  0.00  0.83  0.00
  C35                     1.00   0.01  0.03  0.00  0.91  0.05  0.00  0.00  0.97  0.00
  C36                     1.00   0.00  0.00  0.00  0.80  0.20  0.00  0.00  0.13  0.00
  C38                     1.00   0.01  0.00  0.00  0.33  0.66  0.00  0.00  0.40  0.00
  C39                     1.00   0.01  0.00  0.00  0.86  0.13  0.00  0.00  0.91  0.00
  C4                      1.00   0.00  0.01  0.00  0.99  0.00  0.00  0.00  0.96  0.00
  C47                     1.00   0.00  0.00  0.00  0.04  0.95  0.00  0.00  0.11  0.00
  C49                     1.00   0.00  0.01  0.00  0.99  0.00  0.00  0.00  0.88  0.00
  C5                      1.00   0.01  0.00  0.00  0.99  0.00  0.00  0.00  0.95  0.00
  C50                     1.00   0.00  0.00  0.00  0.98  0.02  0.00  0.00  0.04  0.00
  C51                     1.00   0.00  0.00  0.00  0.21  0.79  0.00  0.00  0.07  0.00
  C52                     1.00   0.00  0.01  0.00  0.84  0.15  0.00  0.00  0.94  0.00
  C53                     1.00   0.00  0.00  0.00  1.00  0.00  0.00  0.00  0.97  0.00
  C6                      1.00   0.00  0.00  0.00  0.01  0.99  0.00  0.00  0.00  0.00
  C61                     1.00   0.00  0.00  0.00  0.00  0.99  0.00  0.00  0.95  0.00
  C62                     1.00   0.01  0.00  0.00  0.99  0.00  0.00  0.00  0.86  0.00
  C63                     1.00   0.00  0.00  0.00  0.09  0.91  0.00  0.00  0.68  0.00
  C7                      1.00   0.00  0.00  0.00  0.01  0.99  0.00  0.00  0.00  0.00
  C8                      1.00   0.00  0.00  0.00  0.99  0.00  0.00  0.00  0.93  0.00
  C9                      1.00   0.00  0.01  0.00  0.99  0.00  0.00  0.00  0.98  0.00
  
  
  *************************
  Conduit Surcharge Summary
  *************************
  
  ----------------------------------------------------------------------------
                                                           Hours        Hours 
                         --------- Hours Full --------   Above Full   Capacity
  Conduit                Both Ends  Upstream  Dnstream   Normal Flow   Limited
  ----------------------------------------------------------------------------
  C11                         0.01      0.01      0.01      0.17         0.01
  C13                         0.01      0.01      1.31      0.01         0.01
  C22                         0.01      0.01      3.25      0.01         0.01
  C23                         0.01      0.01      1.59      0.01         0.01
  C24                         0.01      0.99      0.01      0.47         0.01
  C27                         0.01      0.01      0.63      0.01         0.01
  C28                         0.01      0.01      0.25      0.01         0.01
  C30                         0.01      0.64      0.01      1.45         0.01
  C32                         0.01      0.01      0.68      0.01         0.01
  C36                         0.01      1.33      0.01      1.33         0.01
  C49                         0.01      0.01      0.82      0.01         0.01
  C50                         0.60      0.63      0.60      0.74         0.56
  C51                         0.09      0.82      0.09      0.96         0.09
  C52                         1.05      1.05     23.53      0.01         0.01
  C53                         0.01      0.01     23.70      0.01         0.01
  C6                          0.01      0.53      0.01      0.01         0.01
  C7                          0.01      4.74      0.01      0.01         0.01
  

  Analysis begun on:  Tue Mar 18 11:07:52 2025
  Analysis ended on:  Tue Mar 18 11:07:54 2025
  Total elapsed time: 00:00:02