 Point_source              SWAT+ Jun 17 2024        MODULAR Rev 2024.61.0                                 
                                        zmx       usle_k       sumfc       sumul      usle_p     usle_ls        esco        epco     cn3_swf       perco     latq_co   tiledrain 
 sname           hydgrp                 (mm)                    (mm)        (mm)                                                                                     0=notile;1=tile;
Frederick       B                  2000.0000      0.0000    298.1000    392.0720      1.0000      0.5524      0.9500      0.5000      0.9500      0.9000      0.0100           0
Duffield        B                  2000.0000      0.0000    343.6000    485.6873      1.0000      0.6556      0.9500      0.5000      0.9500      0.9000      0.0100           0
Frederick       B                  2000.0000      0.0000    298.1000    392.0720      1.0000      1.0234      0.9500      0.5000      0.9500      0.9000      0.0100           0
Frederick       B                  2000.0000      0.0000    298.1000    392.0720      1.0000      0.3096      0.9500      0.5000      0.9500      0.9000      0.0100           0
Frederick       B                  2000.0000      0.0000    298.1000    392.0720      1.0000      0.9612      0.9500      0.5000      0.9500      0.9000      0.0100           0
Duffield        B                  2000.0000      0.0000    343.6000    485.6873      1.0000      0.5963      0.9500      0.5000      0.9500      0.9000      0.0100           0
Frederick       B                  2000.0000      0.0000    298.1000    392.0720      1.0000      0.9083      0.9500      0.5000      0.9500      0.9000      0.0100           0
Duffield        B                  2000.0000      0.0000    343.6000    485.6873      1.0000      0.5826      0.9500      0.5000      0.9500      0.9000      0.0100           0
Frederick       B                  2000.0000      0.0000    298.1000    392.0720      1.0000      1.2281      0.9500      0.5000      0.9500      0.9000      0.0100           0
Duffield        B                  2000.0000      0.0000    343.6000    485.6873      1.0000      0.6011      0.9500      0.5000      0.9500      0.9000      0.0100           0
Frederick       B                  2000.0000      0.0000    298.1000    392.0720      1.0000      0.5700      0.9500      0.5000      0.9500      0.9000      0.0100           0
Duffield        B                  2000.0000      0.0000    343.6000    485.6873      1.0000      0.7739      0.9500      0.5000      0.9500      0.9000      0.0100           0
Frederick       B                  2000.0000      0.0000    298.1000    392.0720      1.0000      0.9055      0.9500      0.5000      0.9500      0.9000      0.0100           0
Frederick       B                  2000.0000      0.0000    298.1000    392.0720      1.0000      0.5439      0.9500      0.5000      0.9500      0.9000      0.0100           0
Frederick       B                  2000.0000      0.0000    298.1000    392.0720      1.0000      0.5752      0.9500      0.5000      0.9500      0.9000      0.0100           0
Duffield        B                  2000.0000      0.0000    343.6000    485.6873      1.0000      0.5684      0.9500      0.5000      0.9500      0.9000      0.0100           0
Frederick       B                  2000.0000      0.0000    298.1000    392.0720      1.0000      0.7357      0.9500      0.5000      0.9500      0.9000      0.0100           0
Duffield        B                  2000.0000      0.0000    343.6000    485.6873      1.0000      0.3701      0.9500      0.5000      0.9500      0.9000      0.0100           0
Groseclose      C                  2000.0000      0.0000    299.0000    426.4660      1.0000      0.8763      0.9500      0.5000      0.9500      0.5000      0.0100           0
Groseclose      C                  2000.0000      0.0000    299.0000    426.4660      0.7500      0.3684      0.9500      0.5000      0.9500      0.5000      0.0100           0
Frederick       B                  2000.0000      0.0000    298.1000    392.0720      1.0000      0.7479      0.9500      0.5000      0.9500      0.9000      0.0100           0
Duffield        B                  2000.0000      0.0000    343.6000    485.6873      1.0000      0.6218      0.9500      0.5000      0.9500      0.9000      0.0100           0
Groseclose      C                  2000.0000      0.0000    299.0000    426.4660      1.0000      0.9544      0.9500      0.5000      0.9500      0.5000      0.0100           0
Duffield        B                  2000.0000      0.0000    343.6000    485.6873      0.7500      0.5127      0.9500      0.5000      0.9500      0.9000      0.0100           0
Frederick       B                  2000.0000      0.0000    298.1000    392.0720      1.0000      0.7026      0.9500      0.5000      0.9500      0.9000      0.0100           0
Frederick       B                  2000.0000      0.0000    298.1000    392.0720      1.0000      0.4365      0.9500      0.5000      0.9500      0.9000      0.0100           0
Frederick       B                  2000.0000      0.0000    298.1000    392.0720      1.0000      0.5827      0.9500      0.5000      0.9500      0.9000      0.0100           0
Frederick       B                  2000.0000      0.0000    298.1000    392.0720      1.0000      0.3911      0.9500      0.5000      0.9500      0.9000      0.0100           0
Duffield        B                  2000.0000      0.0000    343.6000    485.6873      1.0000      0.3969      0.9500      0.5000      0.9500      0.9000      0.0100           0
Groseclose      C                  2000.0000      0.0000    299.0000    426.4660      1.0000      0.3322      0.9500      0.5000      0.9500      0.5000      0.0100           0
Frederick       B                  2000.0000      0.0000    298.1000    392.0720      0.7500      0.7150      0.9500      0.5000      0.9500      0.9000      0.0100           0
Groseclose      C                  2000.0000      0.0000    299.0000    426.4660      0.7500      0.2204      0.9500      0.5000      0.9500      0.5000      0.0100           0
Frederick       B                  2000.0000      0.0000    298.1000    392.0720      0.7500      0.6349      0.9500      0.5000      0.9500      0.9000      0.0100           0
Duffield        B                  2000.0000      0.0000    343.6000    485.6873      0.7500      0.5725      0.9500      0.5000      0.9500      0.9000      0.0100           0
Frederick       B                  2000.0000      0.0000    298.1000    392.0720      0.7500      0.9498      0.9500      0.5000      0.9500      0.9000      0.0100           0
Groseclose      C                  2000.0000      0.0000    299.0000    426.4660      0.7500      0.2196      0.9500      0.5000      0.9500      0.5000      0.0100           0
Frederick       B                  2000.0000      0.0000    298.1000    392.0720      1.0000      0.5904      0.9500      0.5000      0.9500      0.9000      0.0100           0
Frederick       B                  2000.0000      0.0000    298.1000    392.0720      1.0000      0.3356      0.9500      0.5000      0.9500      0.9000      0.0100           0
Duffield        B                  2000.0000      0.0000    343.6000    485.6873      1.0000      0.6414      0.9500      0.5000      0.9500      0.9000      0.0100           0
Frederick       B                  2000.0000      0.0000    298.1000    392.0720      1.0000      0.3959      0.9500      0.5000      0.9500      0.9000      0.0100           0
Groseclose      C                  2000.0000      0.0000    299.0000    426.4660      1.0000      0.7578      0.9500      0.5000      0.9500      0.5000      0.0100           0
Groseclose      C                  2000.0000      0.0000    299.0000    426.4660      1.0000      0.3047      0.9500      0.5000      0.9500      0.5000      0.0100           0
Frederick       B                  2000.0000      0.0000    298.1000    392.0720      0.7500      0.7065      0.9500      0.5000      0.9500      0.9000      0.0100           0
Duffield        B                  2000.0000      0.0000    343.6000    485.6873      0.7500      0.5984      0.9500      0.5000      0.9500      0.9000      0.0100           0
Frederick       B                  2000.0000      0.0000    298.1000    392.0720      1.0000      0.6632      0.9500      0.5000      0.9500      0.9000      0.0100           0
Frederick       B                  2000.0000      0.0000    298.1000    392.0720      1.0000      0.9007      0.9500      0.5000      0.9500      0.9000      0.0100           0
Duffield        B                  2000.0000      0.0000    343.6000    485.6873      1.0000      0.5358      0.9500      0.5000      0.9500      0.9000      0.0100           0
Frederick       B                  2000.0000      0.0000    298.1000    392.0720      1.0000      0.4451      0.9500      0.5000      0.9500      0.9000      0.0100           0
Duffield        B                  2000.0000      0.0000    343.6000    485.6873      1.0000      0.4120      0.9500      0.5000      0.9500      0.9000      0.0100           0
Berks           C                  2000.0000      0.0000     70.0000    919.4141      1.0000      0.9920      0.9500      0.5000      0.9500      0.5000      0.0100           0
Frederick       B                  2000.0000      0.0000    298.1000    392.0720      1.0000      0.5423      0.9500      0.5000      0.9500      0.9000      0.0100           0
Frederick       B                  2000.0000      0.0000    298.1000    392.0720      1.0000      0.7418      0.9500      0.5000      0.9500      0.9000      0.0100           0
Groseclose      C                  2000.0000      0.0000    299.0000    426.4660      0.7500      0.1947      0.9500      0.5000      0.9500      0.5000      0.0100           0
Frederick       B                  2000.0000      0.0000    298.1000    392.0720      1.0000      0.9122      0.9500      0.5000      0.9500      0.9000      0.0100           0
Duffield        B                  2000.0000      0.0000    343.6000    485.6873      1.0000      0.4854      0.9500      0.5000      0.9500      0.9000      0.0100           0
Frederick       B                  2000.0000      0.0000    298.1000    392.0720      1.0000      0.9458      0.9500      0.5000      0.9500      0.9000      0.0100           0
Frederick       B                  2000.0000      0.0000    298.1000    392.0720      1.0000      0.7663      0.9500      0.5000      0.9500      0.9000      0.0100           0
Frederick       B                  2000.0000      0.0000    298.1000    392.0720      1.0000      0.6534      0.9500      0.5000      0.9500      0.9000      0.0100           0
Frederick       B                  2000.0000      0.0000    298.1000    392.0720      1.0000      0.7101      0.9500      0.5000      0.9500      0.9000      0.0100           0
Duffield        B                  2000.0000      0.0000    343.6000    485.6873      1.0000      0.6011      0.9500      0.5000      0.9500      0.9000      0.0100           0
Frederick       B                  2000.0000      0.0000    298.1000    392.0720      1.0000      0.7926      0.9500      0.5000      0.9500      0.9000      0.0100           0
Frederick       B                  2000.0000      0.0000    298.1000    392.0720      1.0000      0.6854      0.9500      0.5000      0.9500      0.9000      0.0100           0
Groseclose      C                  2000.0000      0.0000    299.0000    426.4660      0.7500      0.6867      0.9500      0.5000      0.9500      0.5000      0.0100           0
Duffield        B                  2000.0000      0.0000    343.6000    485.6873      0.7500      0.4298      0.9500      0.5000      0.9500      0.9000      0.0100           0
Duffield        B                  2000.0000      0.0000    343.6000    485.6873      0.7500      0.5672      0.9500      0.5000      0.9500      0.9000      0.0100           0
Groseclose      C                  2000.0000      0.0000    299.0000    426.4660      1.0000      0.4496      0.9500      0.5000      0.9500      0.5000      0.0100           0
Groseclose      C                  2000.0000      0.0000    299.0000    426.4660      0.7500      0.9238      0.9500      0.5000      0.9500      0.5000      0.0100           0
Groseclose      C                  2000.0000      0.0000    299.0000    426.4660      1.0000      0.1942      0.9500      0.5000      0.9500      0.5000      0.0100           0
Groseclose      C                  2000.0000      0.0000    299.0000    426.4660      0.7500      0.8078      0.9500      0.5000      0.9500      0.5000      0.0100           0
Duffield        B                  2000.0000      0.0000    343.6000    485.6873      0.7500      0.1865      0.9500      0.5000      0.9500      0.9000      0.0100           0
Berks           C                  2000.0000      0.0000     70.0000    919.4141      1.0000      0.2513      0.9500      0.5000      0.9500      0.5000      0.0100           0
Groseclose      C                  2000.0000      0.0000    299.0000    426.4660      1.0000      1.2474      0.9500      0.5000      0.9500      0.5000      0.0100           0
Duffield        B                  2000.0000      0.0000    343.6000    485.6873      0.7500      0.0913      0.9500      0.5000      0.9500      0.9000      0.0100           0
Groseclose      C                  2000.0000      0.0000    299.0000    426.4660      0.7500      0.6237      0.9500      0.5000      0.9500      0.5000      0.0100           0
Frederick       B                  2000.0000      0.0000    298.1000    392.0720      1.0000      0.7207      0.9500      0.5000      0.9500      0.9000      0.0100           0
Frederick       B                  2000.0000      0.0000    298.1000    392.0720      1.0000      0.6916      0.9500      0.5000      0.9500      0.9000      0.0100           0
Frederick       B                  2000.0000      0.0000    298.1000    392.0720      1.0000      0.8685      0.9500      0.5000      0.9500      0.9000      0.0100           0
Duffield        B                  2000.0000      0.0000    343.6000    485.6873      0.7500      0.7165      0.9500      0.5000      0.9500      0.9000      0.0100           0
Groseclose      C                  2000.0000      0.0000    299.0000    426.4660      0.7500      0.5410      0.9500      0.5000      0.9500      0.5000      0.0100           0
Duffield        B                  2000.0000      0.0000    343.6000    485.6873      0.7500      0.5439      0.9500      0.5000      0.9500      0.9000      0.0100           0
Groseclose      C                  2000.0000      0.0000    299.0000    426.4660      0.7500      0.1573      0.9500      0.5000      0.9500      0.5000      0.0100           0
Groseclose      C                  2000.0000      0.0000    299.0000    426.4660      0.7500      0.6714      0.9500      0.5000      0.9500      0.5000      0.0100           0
Groseclose      C                  2000.0000      0.0000    299.0000    426.4660      0.7500      0.6198      0.9500      0.5000      0.9500      0.5000      0.0100           0
Groseclose      C                  2000.0000      0.0000    299.0000    426.4660      1.0000      0.6056      0.9500      0.5000      0.9500      0.5000      0.0100           0
Groseclose      C                  2000.0000      0.0000    299.0000    426.4660      1.0000      0.6007      0.9500      0.5000      0.9500      0.5000      0.0100           0
Groseclose      C                  2000.0000      0.0000    299.0000    426.4660      1.0000      0.3173      0.9500      0.5000      0.9500      0.5000      0.0100           0
Frederick       B                  2000.0000      0.0000    298.1000    392.0720      1.0000      0.9469      0.9500      0.5000      0.9500      0.9000      0.0100           0
Frederick       B                  2000.0000      0.0000    298.1000    392.0720      1.0000      0.3987      0.9500      0.5000      0.9500      0.9000      0.0100           0
Frederick       B                  2000.0000      0.0000    298.1000    392.0720      1.0000      0.6305      0.9500      0.5000      0.9500      0.9000      0.0100           0
Groseclose      C                  2000.0000      0.0000    299.0000    426.4660      1.0000      0.5616      0.9500      0.5000      0.9500      0.5000      0.0100           0
Groseclose      C                  2000.0000      0.0000    299.0000    426.4660      0.7500      0.6559      0.9500      0.5000      0.9500      0.5000      0.0100           0
Frederick       B                  2000.0000      0.0000    298.1000    392.0720      1.0000      0.6570      0.9500      0.5000      0.9500      0.9000      0.0100           0
Frederick       B                  2000.0000      0.0000    298.1000    392.0720      1.0000      0.5659      0.9500      0.5000      0.9500      0.9000      0.0100           0
Frederick       B                  2000.0000      0.0000    298.1000    392.0720      1.0000      0.6815      0.9500      0.5000      0.9500      0.9000      0.0100           0
Frederick       B                  2000.0000      0.0000    298.1000    392.0720      1.0000      0.9549      0.9500      0.5000      0.9500      0.9000      0.0100           0
Frederick       B                  2000.0000      0.0000    298.1000    392.0720      1.0000      0.9994      0.9500      0.5000      0.9500      0.9000      0.0100           0
Frederick       B                  2000.0000      0.0000    298.1000    392.0720      1.0000      2.0744      0.9500      0.5000      0.9500      0.9000      0.0100           0
Duffield        B                  2000.0000      0.0000    343.6000    485.6873      0.7500      0.8285      0.9500      0.5000      0.9500      0.9000      0.0100           0
Groseclose      C                  2000.0000      0.0000    299.0000    426.4660      1.0000      0.9797      0.9500      0.5000      0.9500      0.5000      0.0100           0
Frederick       B                  2000.0000      0.0000    298.1000    392.0720      1.0000      5.0217      0.9500      0.5000      0.9500      0.9000      0.0100           0
Groseclose      C                  2000.0000      0.0000    299.0000    426.4660      1.0000      0.5572      0.9500      0.5000      0.9500      0.5000      0.0100           0
Groseclose      C                  2000.0000      0.0000    299.0000    426.4660      0.7500      0.8558      0.9500      0.5000      0.9500      0.5000      0.0100           0
Groseclose      C                  2000.0000      0.0000    299.0000    426.4660      0.7500      0.7056      0.9500      0.5000      0.9500      0.5000      0.0100           0
Groseclose      C                  2000.0000      0.0000    299.0000    426.4660      1.0000      0.6612      0.9500      0.5000      0.9500      0.5000      0.0100           0
Frederick       B                  2000.0000      0.0000    298.1000    392.0720      1.0000      2.8295      0.9500      0.5000      0.9500      0.9000      0.0100           0
Frederick       B                  2000.0000      0.0000    298.1000    392.0720      1.0000      0.9745      0.9500      0.5000      0.9500      0.9000      0.0100           0
Groseclose      C                  2000.0000      0.0000    299.0000    426.4660      1.0000      0.5953      0.9500      0.5000      0.9500      0.5000      0.0100           0
Groseclose      C                  2000.0000      0.0000    299.0000    426.4660      0.7500      0.6646      0.9500      0.5000      0.9500      0.5000      0.0100           0
Groseclose      C                  2000.0000      0.0000    299.0000    426.4660      0.7500      0.6347      0.9500      0.5000      0.9500      0.5000      0.0100           0
Groseclose      C                  2000.0000      0.0000    299.0000    426.4660      0.7500      0.7168      0.9500      0.5000      0.9500      0.5000      0.0100           0
Groseclose      C                  2000.0000      0.0000    299.0000    426.4660      1.0000      0.4440      0.9500      0.5000      0.9500      0.5000      0.0100           0
Duffield        B                  2000.0000      0.0000    343.6000    485.6873      1.0000      0.5437      0.9500      0.5000      0.9500      0.9000      0.0100           0
Groseclose      C                  2000.0000      0.0000    299.0000    426.4660      0.7500      0.8066      0.9500      0.5000      0.9500      0.5000      0.0100           0
Groseclose      C                  2000.0000      0.0000    299.0000    426.4660      0.7500      0.7947      0.9500      0.5000      0.9500      0.5000      0.0100           0
Duffield        B                  2000.0000      0.0000    343.6000    485.6873      0.7500      0.8106      0.9500      0.5000      0.9500      0.9000      0.0100           0
Duffield        B                  2000.0000      0.0000    343.6000    485.6873      0.7500      0.6382      0.9500      0.5000      0.9500      0.9000      0.0100           0
Duffield        B                  2000.0000      0.0000    343.6000    485.6873      0.7500      0.7300      0.9500      0.5000      0.9500      0.9000      0.0100           0
Frederick       B                  2000.0000      0.0000    298.1000    392.0720      1.0000      0.6649      0.9500      0.5000      0.9500      0.9000      0.0100           0
Groseclose      C                  2000.0000      0.0000    299.0000    426.4660      1.0000      1.6061      0.9500      0.5000      0.9500      0.5000      0.0100           0
Groseclose      C                  2000.0000      0.0000    299.0000    426.4660      0.7500      0.3904      0.9500      0.5000      0.9500      0.5000      0.0100           0
Groseclose      C                  2000.0000      0.0000    299.0000    426.4660      0.7500      0.5632      0.9500      0.5000      0.9500      0.5000      0.0100           0
Duffield        B                  2000.0000      0.0000    343.6000    485.6873      1.0000      0.8836      0.9500      0.5000      0.9500      0.9000      0.0100           0
Groseclose      C                  2000.0000      0.0000    299.0000    426.4660      1.0000      0.9933      0.9500      0.5000      0.9500      0.5000      0.0100           0
Duffield        B                  2000.0000      0.0000    343.6000    485.6873      0.7500      0.5834      0.9500      0.5000      0.9500      0.9000      0.0100           0
Groseclose      C                  2000.0000      0.0000    299.0000    426.4660      0.7500      0.5859      0.9500      0.5000      0.9500      0.5000      0.0100           0
Groseclose      C                  2000.0000      0.0000    299.0000    426.4660      0.7500      1.1341      0.9500      0.5000      0.9500      0.5000      0.0100           0
Duffield        B                  2000.0000      0.0000    343.6000    485.6873      1.0000      0.6417      0.9500      0.5000      0.9500      0.9000      0.0100           0
Duffield        B                  2000.0000      0.0000    343.6000    485.6873      1.0000      0.9315      0.9500      0.5000      0.9500      0.9000      0.0100           0
Frederick       B                  2000.0000      0.0000    298.1000    392.0720      1.0000      0.7753      0.9500      0.5000      0.9500      0.9000      0.0100           0
Duffield        B                  2000.0000      0.0000    343.6000    485.6873      1.0000      0.7169      0.9500      0.5000      0.9500      0.9000      0.0100           0
Groseclose      C                  2000.0000      0.0000    299.0000    426.4660      0.7500      0.7855      0.9500      0.5000      0.9500      0.5000      0.0100           0
Duffield        B                  2000.0000      0.0000    343.6000    485.6873      1.0000      0.7113      0.9500      0.5000      0.9500      0.9000      0.0100           0
Duffield        B                  2000.0000      0.0000    343.6000    485.6873      1.0000      0.4659      0.9500      0.5000      0.9500      0.9000      0.0100           0
Frederick       B                  2000.0000      0.0000    298.1000    392.0720      1.0000      0.8602      0.9500      0.5000      0.9500      0.9000      0.0100           0
Duffield        B                  2000.0000      0.0000    343.6000    485.6873      1.0000      0.7477      0.9500      0.5000      0.9500      0.9000      0.0100           0
Groseclose      C                  2000.0000      0.0000    299.0000    426.4660      0.7500      0.5841      0.9500      0.5000      0.9500      0.5000      0.0100           0
Groseclose      C                  2000.0000      0.0000    299.0000    426.4660      0.7500      0.8795      0.9500      0.5000      0.9500      0.5000      0.0100           0
Groseclose      C                  2000.0000      0.0000    299.0000    426.4660      0.7500      0.5834      0.9500      0.5000      0.9500      0.5000      0.0100           0
Frederick       B                  2000.0000      0.0000    298.1000    392.0720      1.0000      0.6925      0.9500      0.5000      0.9500      0.9000      0.0100           0
Groseclose      C                  2000.0000      0.0000    299.0000    426.4660      0.7500      0.7460      0.9500      0.5000      0.9500      0.5000      0.0100           0
Groseclose      C                  2000.0000      0.0000    299.0000    426.4660      1.0000      0.6578      0.9500      0.5000      0.9500      0.5000      0.0100           0
Duffield        B                  2000.0000      0.0000    343.6000    485.6873      1.0000      0.6317      0.9500      0.5000      0.9500      0.9000      0.0100           0
Frederick       B                  2000.0000      0.0000    298.1000    392.0720      0.7500      0.5810      0.9500      0.5000      0.9500      0.9000      0.0100           0
Duffield        B                  2000.0000      0.0000    343.6000    485.6873      0.7500      0.7898      0.9500      0.5000      0.9500      0.9000      0.0100           0
Duffield        B                  2000.0000      0.0000    343.6000    485.6873      1.0000      0.8244      0.9500      0.5000      0.9500      0.9000      0.0100           0
Duffield        B                  2000.0000      0.0000    343.6000    485.6873      1.0000      0.7033      0.9500      0.5000      0.9500      0.9000      0.0100           0
Frederick       B                  2000.0000      0.0000    298.1000    392.0720      0.7500      0.7482      0.9500      0.5000      0.9500      0.9000      0.0100           0
Groseclose      C                  2000.0000      0.0000    299.0000    426.4660      0.7500      0.7357      0.9500      0.5000      0.9500      0.5000      0.0100           0
Frederick       B                  2000.0000      0.0000    298.1000    392.0720      0.7500      0.8979      0.9500      0.5000      0.9500      0.9000      0.0100           0
Guernsey        C                  2110.0000      0.0000    271.8000    457.7601      1.0000      0.8630      0.9500      0.5000      0.9500      0.5000      0.0100           0
Frederick       B                  2000.0000      0.0000    298.1000    392.0720      0.7500      0.6620      0.9500      0.5000      0.9500      0.9000      0.0100           0
Groseclose      C                  2000.0000      0.0000    299.0000    426.4660      0.7500      0.5526      0.9500      0.5000      0.9500      0.5000      0.0100           0
Groseclose      C                  2000.0000      0.0000    299.0000    426.4660      1.0000      0.6115      0.9500      0.5000      0.9500      0.5000      0.0100           0
Groseclose      C                  2000.0000      0.0000    299.0000    426.4660      0.7500      0.6435      0.9500      0.5000      0.9500      0.5000      0.0100           0
Groseclose      C                  2000.0000      0.0000    299.0000    426.4660      0.7500      0.6540      0.9500      0.5000      0.9500      0.5000      0.0100           0
Groseclose      C                  2000.0000      0.0000    299.0000    426.4660      0.7500      0.6990      0.9500      0.5000      0.9500      0.5000      0.0100           0
Frederick       B                  2000.0000      0.0000    298.1000    392.0720      0.7500      0.6751      0.9500      0.5000      0.9500      0.9000      0.0100           0
Duffield        B                  2000.0000      0.0000    343.6000    485.6873      0.7500      0.8777      0.9500      0.5000      0.9500      0.9000      0.0100           0
Frederick       B                  2000.0000      0.0000    298.1000    392.0720      0.7500      0.7419      0.9500      0.5000      0.9500      0.9000      0.0100           0
Groseclose      C                  2000.0000      0.0000    299.0000    426.4660      0.7500      0.6714      0.9500      0.5000      0.9500      0.5000      0.0100           0
Frederick       B                  2000.0000      0.0000    298.1000    392.0720      0.7500      0.9510      0.9500      0.5000      0.9500      0.9000      0.0100           0
Groseclose      C                  2000.0000      0.0000    299.0000    426.4660      0.7500      0.5933      0.9500      0.5000      0.9500      0.5000      0.0100           0
Groseclose      C                  2000.0000      0.0000    299.0000    426.4660      0.7500      0.7364      0.9500      0.5000      0.9500      0.5000      0.0100           0
Frederick       B                  2000.0000      0.0000    298.1000    392.0720      0.7500      0.7557      0.9500      0.5000      0.9500      0.9000      0.0100           0
Groseclose      C                  2000.0000      0.0000    299.0000    426.4660      1.0000      0.7079      0.9500      0.5000      0.9500      0.5000      0.0100           0
Frederick       B                  2000.0000      0.0000    298.1000    392.0720      0.7500      0.6118      0.9500      0.5000      0.9500      0.9000      0.0100           0
Groseclose      C                  2000.0000      0.0000    299.0000    426.4660      0.7500      0.7279      0.9500      0.5000      0.9500      0.5000      0.0100           0
Frederick       B                  2000.0000      0.0000    298.1000    392.0720      0.7500      1.0825      0.9500      0.5000      0.9500      0.9000      0.0100           0
Groseclose      C                  2000.0000      0.0000    299.0000    426.4660      0.7500      0.6817      0.9500      0.5000      0.9500      0.5000      0.0100           0
Groseclose      C                  2000.0000      0.0000    299.0000    426.4660      0.7500      0.7405      0.9500      0.5000      0.9500      0.5000      0.0100           0
Groseclose      C                  2000.0000      0.0000    299.0000    426.4660      1.0000      0.5615      0.9500      0.5000      0.9500      0.5000      0.0100           0
Duffield        B                  2000.0000      0.0000    343.6000    485.6873      1.0000      0.7346      0.9500      0.5000      0.9500      0.9000      0.0100           0
Groseclose      C                  2000.0000      0.0000    299.0000    426.4660      0.7500      0.9852      0.9500      0.5000      0.9500      0.5000      0.0100           0
Duffield        B                  2000.0000      0.0000    343.6000    485.6873      0.7500      0.4487      0.9500      0.5000      0.9500      0.9000      0.0100           0
Groseclose      C                  2000.0000      0.0000    299.0000    426.4660      1.0000      0.6386      0.9500      0.5000      0.9500      0.5000      0.0100           0
Duffield        B                  2000.0000      0.0000    343.6000    485.6873      1.0000      0.6352      0.9500      0.5000      0.9500      0.9000      0.0100           0
Frederick       B                  2000.0000      0.0000    298.1000    392.0720      1.0000      0.8404      0.9500      0.5000      0.9500      0.9000      0.0100           0
Duffield        B                  2000.0000      0.0000    343.6000    485.6873      1.0000      0.5455      0.9500      0.5000      0.9500      0.9000      0.0100           0
Duffield        B                  2000.0000      0.0000    343.6000    485.6873      0.7500      0.7879      0.9500      0.5000      0.9500      0.9000      0.0100           0
Duffield        B                  2000.0000      0.0000    343.6000    485.6873      0.7500      0.7346      0.9500      0.5000      0.9500      0.9000      0.0100           0
Duffield        B                  2000.0000      0.0000    343.6000    485.6873      1.0000      0.6238      0.9500      0.5000      0.9500      0.9000      0.0100           0
Frederick       B                  2000.0000      0.0000    298.1000    392.0720      1.0000      0.5729      0.9500      0.5000      0.9500      0.9000      0.0100           0
Duffield        B                  2000.0000      0.0000    343.6000    485.6873      1.0000      0.6845      0.9500      0.5000      0.9500      0.9000      0.0100           0
Duffield        B                  2000.0000      0.0000    343.6000    485.6873      1.0000      0.6228      0.9500      0.5000      0.9500      0.9000      0.0100           0
Groseclose      C                  2000.0000      0.0000    299.0000    426.4660      0.7500      0.7586      0.9500      0.5000      0.9500      0.5000      0.0100           0
Duffield        B                  2000.0000      0.0000    343.6000    485.6873      0.7500      0.7913      0.9500      0.5000      0.9500      0.9000      0.0100           0
Duffield        B                  2000.0000      0.0000    343.6000    485.6873      0.7500      0.9963      0.9500      0.5000      0.9500      0.9000      0.0100           0
Berks           C                  2000.0000      0.0000     70.0000    919.4141      1.0000      0.4270      0.9500      0.5000      0.9500      0.5000      0.0100           0
Groseclose      C                  2000.0000      0.0000    299.0000    426.4660      1.0000      0.8103      0.9500      0.5000      0.9500      0.5000      0.0100           0
Duffield        B                  2000.0000      0.0000    343.6000    485.6873      1.0000      0.5668      0.9500      0.5000      0.9500      0.9000      0.0100           0
Groseclose      C                  2000.0000      0.0000    299.0000    426.4660      1.0000      0.8106      0.9500      0.5000      0.9500      0.5000      0.0100           0
Berks           C                  2000.0000      0.0000     70.0000    919.4141      1.0000      0.9184      0.9500      0.5000      0.9500      0.5000      0.0100           0
Duffield        B                  2000.0000      0.0000    343.6000    485.6873      1.0000      0.4084      0.9500      0.5000      0.9500      0.9000      0.0100           0
Duffield        B                  2000.0000      0.0000    343.6000    485.6873      1.0000      0.7327      0.9500      0.5000      0.9500      0.9000      0.0100           0
Groseclose      C                  2000.0000      0.0000    299.0000    426.4660      1.0000      0.9318      0.9500      0.5000      0.9500      0.5000      0.0100           0
Frederick       B                  2000.0000      0.0000    298.1000    392.0720      0.7500      0.9800      0.9500      0.5000      0.9500      0.9000      0.0100           0
Duffield        B                  2000.0000      0.0000    343.6000    485.6873      0.7500      0.6193      0.9500      0.5000      0.9500      0.9000      0.0100           0
Duffield        B                  2000.0000      0.0000    343.6000    485.6873      1.0000      0.6246      0.9500      0.5000      0.9500      0.9000      0.0100           0
Groseclose      C                  2000.0000      0.0000    299.0000    426.4660      1.0000      0.8689      0.9500      0.5000      0.9500      0.5000      0.0100           0
Groseclose      C                  2000.0000      0.0000    299.0000    426.4660      0.7500      1.0649      0.9500      0.5000      0.9500      0.5000      0.0100           0
Groseclose      C                  2000.0000      0.0000    299.0000    426.4660      0.7500      0.8707      0.9500      0.5000      0.9500      0.5000      0.0100           0
Groseclose      C                  2000.0000      0.0000    299.0000    426.4660      0.7500      0.8277      0.9500      0.5000      0.9500      0.5000      0.0100           0
Groseclose      C                  2000.0000      0.0000    299.0000    426.4660      0.7500      1.0178      0.9500      0.5000      0.9500      0.5000      0.0100           0
Frederick       B                  2000.0000      0.0000    298.1000    392.0720      1.0000      0.6393      0.9500      0.5000      0.9500      0.9000      0.0100           0
Frederick       B                  2000.0000      0.0000    298.1000    392.0720      1.0000      0.4946      0.9500      0.5000      0.9500      0.9000      0.0100           0
Frederick       B                  2000.0000      0.0000    298.1000    392.0720      1.0000      0.7839      0.9500      0.5000      0.9500      0.9000      0.0100           0
Frederick       B                  2000.0000      0.0000    298.1000    392.0720      1.0000      0.4944      0.9500      0.5000      0.9500      0.9000      0.0100           0
Frederick       B                  2000.0000      0.0000    298.1000    392.0720      1.0000      0.5191      0.9500      0.5000      0.9500      0.9000      0.0100           0
Duffield        B                  2000.0000      0.0000    343.6000    485.6873      1.0000      0.8633      0.9500      0.5000      0.9500      0.9000      0.0100           0
Frederick       B                  2000.0000      0.0000    298.1000    392.0720      1.0000      0.4851      0.9500      0.5000      0.9500      0.9000      0.0100           0
Frederick       B                  2000.0000      0.0000    298.1000    392.0720      1.0000      0.9886      0.9500      0.5000      0.9500      0.9000      0.0100           0
Frederick       B                  2000.0000      0.0000    298.1000    392.0720      1.0000      0.6165      0.9500      0.5000      0.9500      0.9000      0.0100           0
Duffield        B                  2000.0000      0.0000    343.6000    485.6873      1.0000      0.6704      0.9500      0.5000      0.9500      0.9000      0.0100           0
Duffield        B                  2000.0000      0.0000    343.6000    485.6873      1.0000      0.7429      0.9500      0.5000      0.9500      0.9000      0.0100           0
Frederick       B                  2000.0000      0.0000    298.1000    392.0720      1.0000      0.6434      0.9500      0.5000      0.9500      0.9000      0.0100           0
Duffield        B                  2000.0000      0.0000    343.6000    485.6873      1.0000      0.8320      0.9500      0.5000      0.9500      0.9000      0.0100           0
Frederick       B                  2000.0000      0.0000    298.1000    392.0720      1.0000      0.6456      0.9500      0.5000      0.9500      0.9000      0.0100           0
Frederick       B                  2000.0000      0.0000    298.1000    392.0720      1.0000      0.7701      0.9500      0.5000      0.9500      0.9000      0.0100           0
Frederick       B                  2000.0000      0.0000    298.1000    392.0720      1.0000      0.6283      0.9500      0.5000      0.9500      0.9000      0.0100           0
Frederick       B                  2000.0000      0.0000    298.1000    392.0720      1.0000      0.5392      0.9500      0.5000      0.9500      0.9000      0.0100           0
Duffield        B                  2000.0000      0.0000    343.6000    485.6873      1.0000      0.6685      0.9500      0.5000      0.9500      0.9000      0.0100           0
Duffield        B                  2000.0000      0.0000    343.6000    485.6873      1.0000      0.6282      0.9500      0.5000      0.9500      0.9000      0.0100           0
Frederick       B                  2000.0000      0.0000    298.1000    392.0720      1.0000      0.8865      0.9500      0.5000      0.9500      0.9000      0.0100           0
Duffield        B                  2000.0000      0.0000    343.6000    485.6873      1.0000      0.6316      0.9500      0.5000      0.9500      0.9000      0.0100           0
Frederick       B                  2000.0000      0.0000    298.1000    392.0720      1.0000      1.6593      0.9500      0.5000      0.9500      0.9000      0.0100           0
Berks           C                  2000.0000      0.0000     70.0000    919.4141      1.0000      0.2700      0.9500      0.5000      0.9500      0.5000      0.0100           0
Frederick       B                  2000.0000      0.0000    298.1000    392.0720      1.0000      1.3876      0.9500      0.5000      0.9500      0.9000      0.0100           0
Duffield        B                  2000.0000      0.0000    343.6000    485.6873      1.0000      0.3800      0.9500      0.5000      0.9500      0.9000      0.0100           0
Duffield        B                  2000.0000      0.0000    343.6000    485.6873      1.0000      0.8149      0.9500      0.5000      0.9500      0.9000      0.0100           0
Duffield        B                  2000.0000      0.0000    343.6000    485.6873      1.0000      0.5138      0.9500      0.5000      0.9500      0.9000      0.0100           0
Duffield        B                  2000.0000      0.0000    343.6000    485.6873      1.0000      1.4801      0.9500      0.5000      0.9500      0.9000      0.0100           0
Duffield        B                  2000.0000      0.0000    343.6000    485.6873      1.0000      0.8029      0.9500      0.5000      0.9500      0.9000      0.0100           0
Duffield        B                  2000.0000      0.0000    343.6000    485.6873      1.0000      0.6756      0.9500      0.5000      0.9500      0.9000      0.0100           0
Frederick       B                  2000.0000      0.0000    298.1000    392.0720      1.0000      0.6122      0.9500      0.5000      0.9500      0.9000      0.0100           0
Duffield        B                  2000.0000      0.0000    343.6000    485.6873      1.0000      0.6608      0.9500      0.5000      0.9500      0.9000      0.0100           0
Duffield        B                  2000.0000      0.0000    343.6000    485.6873      1.0000      0.8511      0.9500      0.5000      0.9500      0.9000      0.0100           0
Duffield        B                  2000.0000      0.0000    343.6000    485.6873      1.0000      0.6340      0.9500      0.5000      0.9500      0.9000      0.0100           0
Duffield        B                  2000.0000      0.0000    343.6000    485.6873      1.0000      0.6097      0.9500      0.5000      0.9500      0.9000      0.0100           0
Duffield        B                  2000.0000      0.0000    343.6000    485.6873      1.0000      0.5898      0.9500      0.5000      0.9500      0.9000      0.0100           0
Duffield        B                  2000.0000      0.0000    343.6000    485.6873      1.0000      0.6345      0.9500      0.5000      0.9500      0.9000      0.0100           0
Duffield        B                  2000.0000      0.0000    343.6000    485.6873      0.7500      0.6135      0.9500      0.5000      0.9500      0.9000      0.0100           0
Duffield        B                  2000.0000      0.0000    343.6000    485.6873      0.7500      0.6660      0.9500      0.5000      0.9500      0.9000      0.0100           0
Duffield        B                  2000.0000      0.0000    343.6000    485.6873      1.0000      0.9772      0.9500      0.5000      0.9500      0.9000      0.0100           0
Duffield        B                  2000.0000      0.0000    343.6000    485.6873      1.0000      0.9482      0.9500      0.5000      0.9500      0.9000      0.0100           0
Duffield        B                  2000.0000      0.0000    343.6000    485.6873      1.0000      0.5431      0.9500      0.5000      0.9500      0.9000      0.0100           0
Duffield        B                  2000.0000      0.0000    343.6000    485.6873      1.0000      0.9036      0.9500      0.5000      0.9500      0.9000      0.0100           0
Frederick       B                  2000.0000      0.0000    298.1000    392.0720      1.0000      0.7282      0.9500      0.5000      0.9500      0.9000      0.0100           0
Frederick       B                  2000.0000      0.0000    298.1000    392.0720      1.0000      0.3880      0.9500      0.5000      0.9500      0.9000      0.0100           0
Frederick       B                  2000.0000      0.0000    298.1000    392.0720      1.0000      0.5321      0.9500      0.5000      0.9500      0.9000      0.0100           0
Frederick       B                  2000.0000      0.0000    298.1000    392.0720      1.0000      0.6964      0.9500      0.5000      0.9500      0.9000      0.0100           0
Frederick       B                  2000.0000      0.0000    298.1000    392.0720      1.0000      0.5807      0.9500      0.5000      0.9500      0.9000      0.0100           0
Duffield        B                  2000.0000      0.0000    343.6000    485.6873      1.0000      0.6230      0.9500      0.5000      0.9500      0.9000      0.0100           0
Frederick       B                  2000.0000      0.0000    298.1000    392.0720      1.0000      0.9486      0.9500      0.5000      0.9500      0.9000      0.0100           0
Duffield        B                  2000.0000      0.0000    343.6000    485.6873      1.0000      0.6148      0.9500      0.5000      0.9500      0.9000      0.0100           0
Groseclose      C                  2000.0000      0.0000    299.0000    426.4660      1.0000      0.7519      0.9500      0.5000      0.9500      0.5000      0.0100           0
Duffield        B                  2000.0000      0.0000    343.6000    485.6873      1.0000      0.6190      0.9500      0.5000      0.9500      0.9000      0.0100           0
Frederick       B                  2000.0000      0.0000    298.1000    392.0720      1.0000      0.8208      0.9500      0.5000      0.9500      0.9000      0.0100           0
Frederick       B                  2000.0000      0.0000    298.1000    392.0720      1.0000      0.4679      0.9500      0.5000      0.9500      0.9000      0.0100           0
Duffield        B                  2000.0000      0.0000    343.6000    485.6873      1.0000      1.0879      0.9500      0.5000      0.9500      0.9000      0.0100           0
Frederick       B                  2000.0000      0.0000    298.1000    392.0720      1.0000      0.5876      0.9500      0.5000      0.9500      0.9000      0.0100           0
Frederick       B                  2000.0000      0.0000    298.1000    392.0720      1.0000      1.1555      0.9500      0.5000      0.9500      0.9000      0.0100           0
Frederick       B                  2000.0000      0.0000    298.1000    392.0720      1.0000      0.6359      0.9500      0.5000      0.9500      0.9000      0.0100           0
Frederick       B                  2000.0000      0.0000    298.1000    392.0720      1.0000      0.6535      0.9500      0.5000      0.9500      0.9000      0.0100           0
Frederick       B                  2000.0000      0.0000    298.1000    392.0720      1.0000      0.5778      0.9500      0.5000      0.9500      0.9000      0.0100           0
Groseclose      C                  2000.0000      0.0000    299.0000    426.4660      1.0000      0.8584      0.9500      0.5000      0.9500      0.5000      0.0100           0
Duffield        B                  2000.0000      0.0000    343.6000    485.6873      1.0000      0.5864      0.9500      0.5000      0.9500      0.9000      0.0100           0
Frederick       B                  2000.0000      0.0000    298.1000    392.0720      1.0000      1.8596      0.9500      0.5000      0.9500      0.9000      0.0100           0
Frederick       B                  2000.0000      0.0000    298.1000    392.0720      1.0000      0.1646      0.9500      0.5000      0.9500      0.9000      0.0100           0
Frederick       B                  2000.0000      0.0000    298.1000    392.0720      1.0000      1.4345      0.9500      0.5000      0.9500      0.9000      0.0100           0
Frederick       B                  2000.0000      0.0000    298.1000    392.0720      1.0000      0.5749      0.9500      0.5000      0.9500      0.9000      0.0100           0
Frederick       B                  2000.0000      0.0000    298.1000    392.0720      1.0000      1.0440      0.9500      0.5000      0.9500      0.9000      0.0100           0
Groseclose      C                  2000.0000      0.0000    299.0000    426.4660      1.0000      0.7010      0.9500      0.5000      0.9500      0.5000      0.0100           0
Frederick       B                  2000.0000      0.0000    298.1000    392.0720      1.0000      0.3021      0.9500      0.5000      0.9500      0.9000      0.0100           0
Frederick       B                  2000.0000      0.0000    298.1000    392.0720      1.0000      1.0587      0.9500      0.5000      0.9500      0.9000      0.0100           0
Groseclose      C                  2000.0000      0.0000    299.0000    426.4660      1.0000      1.0511      0.9500      0.5000      0.9500      0.5000      0.0100           0
Groseclose      C                  2000.0000      0.0000    299.0000    426.4660      1.0000      0.7749      0.9500      0.5000      0.9500      0.5000      0.0100           0
Frederick       B                  2000.0000      0.0000    298.1000    392.0720      1.0000      0.2594      0.9500      0.5000      0.9500      0.9000      0.0100           0
Frederick       B                  2000.0000      0.0000    298.1000    392.0720      1.0000      1.4918      0.9500      0.5000      0.9500      0.9000      0.0100           0
Frederick       B                  2000.0000      0.0000    298.1000    392.0720      1.0000      0.8205      0.9500      0.5000      0.9500      0.9000      0.0100           0
Frederick       B                  2000.0000      0.0000    298.1000    392.0720      1.0000      0.8221      0.9500      0.5000      0.9500      0.9000      0.0100           0
Frederick       B                  2000.0000      0.0000    298.1000    392.0720      1.0000      1.5350      0.9500      0.5000      0.9500      0.9000      0.0100           0
Frederick       B                  2000.0000      0.0000    298.1000    392.0720      1.0000      0.6559      0.9500      0.5000      0.9500      0.9000      0.0100           0
Frederick       B                  2000.0000      0.0000    298.1000    392.0720      1.0000      0.9219      0.9500      0.5000      0.9500      0.9000      0.0100           0
Groseclose      C                  2000.0000      0.0000    299.0000    426.4660      1.0000      0.8639      0.9500      0.5000      0.9500      0.5000      0.0100           0
Frederick       B                  2000.0000      0.0000    298.1000    392.0720      1.0000      1.5956      0.9500      0.5000      0.9500      0.9000      0.0100           0
Frederick       B                  2000.0000      0.0000    298.1000    392.0720      1.0000      0.4853      0.9500      0.5000      0.9500      0.9000      0.0100           0
Groseclose      C                  2000.0000      0.0000    299.0000    426.4660      1.0000      0.9487      0.9500      0.5000      0.9500      0.5000      0.0100           0
Groseclose      C                  2000.0000      0.0000    299.0000    426.4660      1.0000      0.7298      0.9500      0.5000      0.9500      0.5000      0.0100           0
Groseclose      C                  2000.0000      0.0000    299.0000    426.4660      1.0000      1.1681      0.9500      0.5000      0.9500      0.5000      0.0100           0
Groseclose      C                  2000.0000      0.0000    299.0000    426.4660      1.0000      0.5897      0.9500      0.5000      0.9500      0.5000      0.0100           0
Groseclose      C                  2000.0000      0.0000    299.0000    426.4660      1.0000      1.0524      0.9500      0.5000      0.9500      0.5000      0.0100           0
Groseclose      C                  2000.0000      0.0000    299.0000    426.4660      1.0000      0.4614      0.9500      0.5000      0.9500      0.5000      0.0100           0
Duffield        B                  2000.0000      0.0000    343.6000    485.6873      1.0000      1.0133      0.9500      0.5000      0.9500      0.9000      0.0100           0
Groseclose      C                  2000.0000      0.0000    299.0000    426.4660      1.0000      0.2346      0.9500      0.5000      0.9500      0.5000      0.0100           0
Groseclose      C                  2000.0000      0.0000    299.0000    426.4660      1.0000      0.4344      0.9500      0.5000      0.9500      0.5000      0.0100           0
Groseclose      C                  2000.0000      0.0000    299.0000    426.4660      1.0000      0.7918      0.9500      0.5000      0.9500      0.5000      0.0100           0
Guernsey        C                  2110.0000      0.0000    271.8000    457.7601      1.0000      0.7218      0.9500      0.5000      0.9500      0.5000      0.0100           0
Guernsey        C                  2110.0000      0.0000    271.8000    457.7601      0.7500      0.7372      0.9500      0.5000      0.9500      0.5000      0.0100           0
Guernsey        C                  2110.0000      0.0000    271.8000    457.7601      1.0000      0.9618      0.9500      0.5000      0.9500      0.5000      0.0100           0
Frederick       B                  2000.0000      0.0000    298.1000    392.0720      1.0000      0.8338      0.9500      0.5000      0.9500      0.9000      0.0100           0
Groseclose      C                  2000.0000      0.0000    299.0000    426.4660      1.0000      0.5661      0.9500      0.5000      0.9500      0.5000      0.0100           0
Frederick       B                  2000.0000      0.0000    298.1000    392.0720      1.0000      0.5754      0.9500      0.5000      0.9500      0.9000      0.0100           0
Groseclose      C                  2000.0000      0.0000    299.0000    426.4660      1.0000      0.6955      0.9500      0.5000      0.9500      0.5000      0.0100           0
Duffield        B                  2000.0000      0.0000    343.6000    485.6873      1.0000      0.5221      0.9500      0.5000      0.9500      0.9000      0.0100           0
Groseclose      C                  2000.0000      0.0000    299.0000    426.4660      1.0000      0.7468      0.9500      0.5000      0.9500      0.5000      0.0100           0
Frederick       B                  2000.0000      0.0000    298.1000    392.0720      1.0000      0.4207      0.9500      0.5000      0.9500      0.9000      0.0100           0
Duffield        B                  2000.0000      0.0000    343.6000    485.6873      1.0000      0.8657      0.9500      0.5000      0.9500      0.9000      0.0100           0
Duffield        B                  2000.0000      0.0000    343.6000    485.6873      1.0000      0.6253      0.9500      0.5000      0.9500      0.9000      0.0100           0
Duffield        B                  2000.0000      0.0000    343.6000    485.6873      1.0000      0.7327      0.9500      0.5000      0.9500      0.9000      0.0100           0
Duffield        B                  2000.0000      0.0000    343.6000    485.6873      1.0000      0.6252      0.9500      0.5000      0.9500      0.9000      0.0100           0
Duffield        B                  2000.0000      0.0000    343.6000    485.6873      1.0000      0.6849      0.9500      0.5000      0.9500      0.9000      0.0100           0
Duffield        B                  2000.0000      0.0000    343.6000    485.6873      1.0000      0.8373      0.9500      0.5000      0.9500      0.9000      0.0100           0
Frederick       B                  2000.0000      0.0000    298.1000    392.0720      1.0000      0.6436      0.9500      0.5000      0.9500      0.9000      0.0100           0
Duffield        B                  2000.0000      0.0000    343.6000    485.6873      1.0000      0.7230      0.9500      0.5000      0.9500      0.9000      0.0100           0
Groseclose      C                  2000.0000      0.0000    299.0000    426.4660      1.0000      0.8937      0.9500      0.5000      0.9500      0.5000      0.0100           0
Duffield        B                  2000.0000      0.0000    343.6000    485.6873      1.0000      0.5360      0.9500      0.5000      0.9500      0.9000      0.0100           0
Groseclose      C                  2000.0000      0.0000    299.0000    426.4660      1.0000      0.8533      0.9500      0.5000      0.9500      0.5000      0.0100           0
Frederick       B                  2000.0000      0.0000    298.1000    392.0720      1.0000      0.6202      0.9500      0.5000      0.9500      0.9000      0.0100           0
Duffield        B                  2000.0000      0.0000    343.6000    485.6873      1.0000      0.6639      0.9500      0.5000      0.9500      0.9000      0.0100           0
Duffield        B                  2000.0000      0.0000    343.6000    485.6873      1.0000      0.5115      0.9500      0.5000      0.9500      0.9000      0.0100           0
Frederick       B                  2000.0000      0.0000    298.1000    392.0720      1.0000      0.7227      0.9500      0.5000      0.9500      0.9000      0.0100           0
Duffield        B                  2000.0000      0.0000    343.6000    485.6873      1.0000      0.6779      0.9500      0.5000      0.9500      0.9000      0.0100           0
Groseclose      C                  2000.0000      0.0000    299.0000    426.4660      1.0000      0.5488      0.9500      0.5000      0.9500      0.5000      0.0100           0
Duffield        B                  2000.0000      0.0000    343.6000    485.6873      1.0000      0.5964      0.9500      0.5000      0.9500      0.9000      0.0100           0
Frederick       B                  2000.0000      0.0000    298.1000    392.0720      1.0000      0.5396      0.9500      0.5000      0.9500      0.9000      0.0100           0
Duffield        B                  2000.0000      0.0000    343.6000    485.6873      1.0000      0.5866      0.9500      0.5000      0.9500      0.9000      0.0100           0
Frederick       B                  2000.0000      0.0000    298.1000    392.0720      1.0000      0.6658      0.9500      0.5000      0.9500      0.9000      0.0100           0
Duffield        B                  2000.0000      0.0000    343.6000    485.6873      1.0000      1.1724      0.9500      0.5000      0.9500      0.9000      0.0100           0
Frederick       B                  2000.0000      0.0000    298.1000    392.0720      1.0000      0.5710      0.9500      0.5000      0.9500      0.9000      0.0100           0
Duffield        B                  2000.0000      0.0000    343.6000    485.6873      1.0000      0.5571      0.9500      0.5000      0.9500      0.9000      0.0100           0
Duffield        B                  2000.0000      0.0000    343.6000    485.6873      1.0000      0.5152      0.9500      0.5000      0.9500      0.9000      0.0100           0
Groseclose      C                  2000.0000      0.0000    299.0000    426.4660      1.0000      0.6799      0.9500      0.5000      0.9500      0.5000      0.0100           0
Ross            B                  2000.0000      0.0000    309.8000    720.9880      1.0000      0.8998      0.9500      0.5000      0.9500      0.9000      0.0100           0
Duffield        B                  2000.0000      0.0000    343.6000    485.6873      1.0000      0.6790      0.9500      0.5000      0.9500      0.9000      0.0100           0
Groseclose      C                  2000.0000      0.0000    299.0000    426.4660      1.0000      0.6441      0.9500      0.5000      0.9500      0.5000      0.0100           0
Duffield        B                  2000.0000      0.0000    343.6000    485.6873      0.7500      0.2834      0.9500      0.5000      0.9500      0.9000      0.0100           0
Ross            B                  2000.0000      0.0000    309.8000    720.9880      1.0000      0.5957      0.9500      0.5000      0.9500      0.9000      0.0100           0
Ross            B                  2000.0000      0.0000    309.8000    720.9880      1.0000      0.6577      0.9500      0.5000      0.9500      0.9000      0.0100           0
Duffield        B                  2000.0000      0.0000    343.6000    485.6873      1.0000      0.5941      0.9500      0.5000      0.9500      0.9000      0.0100           0
Duffield        B                  2000.0000      0.0000    343.6000    485.6873      1.0000      0.5638      0.9500      0.5000      0.9500      0.9000      0.0100           0
Groseclose      C                  2000.0000      0.0000    299.0000    426.4660      1.0000      0.5977      0.9500      0.5000      0.9500      0.5000      0.0100           0
Groseclose      C                  2000.0000      0.0000    299.0000    426.4660      1.0000      0.5891      0.9500      0.5000      0.9500      0.5000      0.0100           0
Groseclose      C                  2000.0000      0.0000    299.0000    426.4660      1.0000      0.5649      0.9500      0.5000      0.9500      0.5000      0.0100           0
Groseclose      C                  2000.0000      0.0000    299.0000    426.4660      0.7500      0.3974      0.9500      0.5000      0.9500      0.5000      0.0100           0
Groseclose      C                  2000.0000      0.0000    299.0000    426.4660      0.7500      0.1229      0.9500      0.5000      0.9500      0.5000      0.0100           0
Groseclose      C                  2000.0000      0.0000    299.0000    426.4660      0.7500      0.8321      0.9500      0.5000      0.9500      0.5000      0.0100           0
Frederick       B                  2000.0000      0.0000    298.1000    392.0720      0.7500      0.1601      0.9500      0.5000      0.9500      0.9000      0.0100           0
Frederick       B                  2000.0000      0.0000    298.1000    392.0720      0.7500      0.9752      0.9500      0.5000      0.9500      0.9000      0.0100           0
Groseclose      C                  2000.0000      0.0000    299.0000    426.4660      0.7500      0.0650      0.9500      0.5000      0.9500      0.5000      0.0100           0
Groseclose      C                  2000.0000      0.0000    299.0000    426.4660      0.7500      0.1073      0.9500      0.5000      0.9500      0.5000      0.0100           0
Frederick       B                  2000.0000      0.0000    298.1000    392.0720      0.7500      0.5852      0.9500      0.5000      0.9500      0.9000      0.0100           0
Groseclose      C                  2000.0000      0.0000    299.0000    426.4660      0.7500      0.2642      0.9500      0.5000      0.9500      0.5000      0.0100           0
Frederick       B                  2000.0000      0.0000    298.1000    392.0720      1.0000      0.5964      0.9500      0.5000      0.9500      0.9000      0.0100           0
Frederick       B                  2000.0000      0.0000    298.1000    392.0720      1.0000      0.6851      0.9500      0.5000      0.9500      0.9000      0.0100           0
Groseclose      C                  2000.0000      0.0000    299.0000    426.4660      0.7500      0.4069      0.9500      0.5000      0.9500      0.5000      0.0100           0
Frederick       B                  2000.0000      0.0000    298.1000    392.0720      1.0000      0.5972      0.9500      0.5000      0.9500      0.9000      0.0100           0
Duffield        B                  2000.0000      0.0000    343.6000    485.6873      1.0000      0.7139      0.9500      0.5000      0.9500      0.9000      0.0100           0
Groseclose      C                  2000.0000      0.0000    299.0000    426.4660      1.0000      0.5721      0.9500      0.5000      0.9500      0.5000      0.0100           0
Duffield        B                  2000.0000      0.0000    343.6000    485.6873      1.0000      0.2713      0.9500      0.5000      0.9500      0.9000      0.0100           0
Frederick       B                  2000.0000      0.0000    298.1000    392.0720      0.7500      0.7652      0.9500      0.5000      0.9500      0.9000      0.0100           0
Frederick       B                  2000.0000      0.0000    298.1000    392.0720      0.7500      0.1877      0.9500      0.5000      0.9500      0.9000      0.0100           0
Duffield        B                  2000.0000      0.0000    343.6000    485.6873      1.0000      0.7155      0.9500      0.5000      0.9500      0.9000      0.0100           0
Duffield        B                  2000.0000      0.0000    343.6000    485.6873      0.7500      0.6667      0.9500      0.5000      0.9500      0.9000      0.0100           0
Frederick       B                  2000.0000      0.0000    298.1000    392.0720      0.7500      0.2581      0.9500      0.5000      0.9500      0.9000      0.0100           0
Duffield        B                  2000.0000      0.0000    343.6000    485.6873      0.7500      2.8555      0.9500      0.5000      0.9500      0.9000      0.0100           0
Frederick       B                  2000.0000      0.0000    298.1000    392.0720      0.7500      0.4887      0.9500      0.5000      0.9500      0.9000      0.0100           0
Frederick       B                  2000.0000      0.0000    298.1000    392.0720      0.7500      0.7517      0.9500      0.5000      0.9500      0.9000      0.0100           0
Frederick       B                  2000.0000      0.0000    298.1000    392.0720      0.7500      0.5363      0.9500      0.5000      0.9500      0.9000      0.0100           0
Duffield        B                  2000.0000      0.0000    343.6000    485.6873      0.7500      0.7113      0.9500      0.5000      0.9500      0.9000      0.0100           0
Groseclose      C                  2000.0000      0.0000    299.0000    426.4660      1.0000      0.8942      0.9500      0.5000      0.9500      0.5000      0.0100           0
Duffield        B                  2000.0000      0.0000    343.6000    485.6873      1.0000      0.5571      0.9500      0.5000      0.9500      0.9000      0.0100           0
Groseclose      C                  2000.0000      0.0000    299.0000    426.4660      1.0000      0.8147      0.9500      0.5000      0.9500      0.5000      0.0100           0
Frederick       B                  2000.0000      0.0000    298.1000    392.0720      1.0000      0.9165      0.9500      0.5000      0.9500      0.9000      0.0100           0
Groseclose      C                  2000.0000      0.0000    299.0000    426.4660      1.0000      0.9414      0.9500      0.5000      0.9500      0.5000      0.0100           0
Frederick       B                  2000.0000      0.0000    298.1000    392.0720      1.0000      0.5560      0.9500      0.5000      0.9500      0.9000      0.0100           0
Frederick       B                  2000.0000      0.0000    298.1000    392.0720      0.7500      0.6869      0.9500      0.5000      0.9500      0.9000      0.0100           0
Groseclose      C                  2000.0000      0.0000    299.0000    426.4660      0.7500      0.8038      0.9500      0.5000      0.9500      0.5000      0.0100           0
Guernsey        C                  2110.0000      0.0000    271.8000    457.7601      1.0000      0.5855      0.9500      0.5000      0.9500      0.5000      0.0100           0
Frederick       B                  2000.0000      0.0000    298.1000    392.0720      1.0000      0.9603      0.9500      0.5000      0.9500      0.9000      0.0100           0
Groseclose      C                  2000.0000      0.0000    299.0000    426.4660      1.0000      1.1209      0.9500      0.5000      0.9500      0.5000      0.0100           0
Groseclose      C                  2000.0000      0.0000    299.0000    426.4660      1.0000      0.6062      0.9500      0.5000      0.9500      0.5000      0.0100           0
Groseclose      C                  2000.0000      0.0000    299.0000    426.4660      0.7500      0.7813      0.9500      0.5000      0.9500      0.5000      0.0100           0
Berks           C                  2000.0000      0.0000     70.0000    919.4141      0.7500      0.2864      0.9500      0.5000      0.9500      0.5000      0.0100           0
Groseclose      C                  2000.0000      0.0000    299.0000    426.4660      1.0000      0.6889      0.9500      0.5000      0.9500      0.5000      0.0100           0
Duffield        B                  2000.0000      0.0000    343.6000    485.6873      1.0000      0.4209      0.9500      0.5000      0.9500      0.9000      0.0100           0
Guernsey        C                  2110.0000      0.0000    271.8000    457.7601      1.0000      0.5022      0.9500      0.5000      0.9500      0.5000      0.0100           0
McGary          C                  2000.0000      0.0000    297.1000    406.3546      0.7500      1.8441      0.9500      0.5000      0.9500      0.5000      0.0100           0
Guernsey        C                  2110.0000      0.0000    271.8000    457.7601      1.0000      0.9342      0.9500      0.5000      0.9500      0.5000      0.0100           0
Berks           C                  2000.0000      0.0000     70.0000    919.4141      0.7500      0.5955      0.9500      0.5000      0.9500      0.5000      0.0100           0
Guernsey        C                  2110.0000      0.0000    271.8000    457.7601      0.7500      0.3927      0.9500      0.5000      0.9500      0.5000      0.0100           0
Guernsey        C                  2110.0000      0.0000    271.8000    457.7601      0.7500      1.2119      0.9500      0.5000      0.9500      0.5000      0.0100           0
Groseclose      C                  2000.0000      0.0000    299.0000    426.4660      1.0000      0.6402      0.9500      0.5000      0.9500      0.5000      0.0100           0
Duffield        B                  2000.0000      0.0000    343.6000    485.6873      1.0000      0.5807      0.9500      0.5000      0.9500      0.9000      0.0100           0
Groseclose      C                  2000.0000      0.0000    299.0000    426.4660      1.0000      0.9988      0.9500      0.5000      0.9500      0.5000      0.0100           0
Frederick       B                  2000.0000      0.0000    298.1000    392.0720      1.0000      0.5837      0.9500      0.5000      0.9500      0.9000      0.0100           0
Guernsey        C                  2110.0000      0.0000    271.8000    457.7601      0.7500      0.7365      0.9500      0.5000      0.9500      0.5000      0.0100           0
Frederick       B                  2000.0000      0.0000    298.1000    392.0720      0.7500      0.8596      0.9500      0.5000      0.9500      0.9000      0.0100           0
Groseclose      C                  2000.0000      0.0000    299.0000    426.4660      1.0000      0.9300      0.9500      0.5000      0.9500      0.5000      0.0100           0
Groseclose      C                  2000.0000      0.0000    299.0000    426.4660      1.0000      1.0229      0.9500      0.5000      0.9500      0.5000      0.0100           0
Groseclose      C                  2000.0000      0.0000    299.0000    426.4660      1.0000      0.7784      0.9500      0.5000      0.9500      0.5000      0.0100           0
Duffield        B                  2000.0000      0.0000    343.6000    485.6873      1.0000      1.4730      0.9500      0.5000      0.9500      0.9000      0.0100           0
Berks           C                  2000.0000      0.0000     70.0000    919.4141      1.0000      0.8175      0.9500      0.5000      0.9500      0.5000      0.0100           0
Berks           C                  2000.0000      0.0000     70.0000    919.4141      1.0000      0.2094      0.9500      0.5000      0.9500      0.5000      0.0100           0
Duffield        B                  2000.0000      0.0000    343.6000    485.6873      1.0000      0.5721      0.9500      0.5000      0.9500      0.9000      0.0100           0
Frederick       B                  2000.0000      0.0000    298.1000    392.0720      1.0000      0.5947      0.9500      0.5000      0.9500      0.9000      0.0100           0
Guernsey        C                  2110.0000      0.0000    271.8000    457.7601      0.7500      0.8162      0.9500      0.5000      0.9500      0.5000      0.0100           0
Frederick       B                  2000.0000      0.0000    298.1000    392.0720      0.7500      0.9117      0.9500      0.5000      0.9500      0.9000      0.0100           0
Duffield        B                  2000.0000      0.0000    343.6000    485.6873      1.0000      0.8703      0.9500      0.5000      0.9500      0.9000      0.0100           0
Frederick       B                  2000.0000      0.0000    298.1000    392.0720      1.0000      0.6422      0.9500      0.5000      0.9500      0.9000      0.0100           0
Berks           C                  2000.0000      0.0000     70.0000    919.4141      0.7500      0.6226      0.9500      0.5000      0.9500      0.5000      0.0100           0
Groseclose      C                  2000.0000      0.0000    299.0000    426.4660      1.0000      0.7436      0.9500      0.5000      0.9500      0.5000      0.0100           0
Berks           C                  2000.0000      0.0000     70.0000    919.4141      1.0000      0.7301      0.9500      0.5000      0.9500      0.5000      0.0100           0
Groseclose      C                  2000.0000      0.0000    299.0000    426.4660      0.7500      0.8747      0.9500      0.5000      0.9500      0.5000      0.0100           0
Groseclose      C                  2000.0000      0.0000    299.0000    426.4660      1.0000      0.7134      0.9500      0.5000      0.9500      0.5000      0.0100           0
Groseclose      C                  2000.0000      0.0000    299.0000    426.4660      1.0000      0.5727      0.9500      0.5000      0.9500      0.5000      0.0100           0
Berks           C                  2000.0000      0.0000     70.0000    919.4141      1.0000      0.9276      0.9500      0.5000      0.9500      0.5000      0.0100           0
Frederick       B                  2000.0000      0.0000    298.1000    392.0720      1.0000      0.9886      0.9500      0.5000      0.9500      0.9000      0.0100           0
Berks           C                  2000.0000      0.0000     70.0000    919.4141      1.0000      0.8436      0.9500      0.5000      0.9500      0.5000      0.0100           0
Groseclose      C                  2000.0000      0.0000    299.0000    426.4660      1.0000      0.7596      0.9500      0.5000      0.9500      0.5000      0.0100           0
Berks           C                  2000.0000      0.0000     70.0000    919.4141      1.0000      0.5645      0.9500      0.5000      0.9500      0.5000      0.0100           0
Frederick       B                  2000.0000      0.0000    298.1000    392.0720      1.0000      1.1291      0.9500      0.5000      0.9500      0.9000      0.0100           0
Duffield        B                  2000.0000      0.0000    343.6000    485.6873      1.0000      0.5154      0.9500      0.5000      0.9500      0.9000      0.0100           0
Groseclose      C                  2000.0000      0.0000    299.0000    426.4660      1.0000      0.7400      0.9500      0.5000      0.9500      0.5000      0.0100           0
Duffield        B                  2000.0000      0.0000    343.6000    485.6873      1.0000      0.5505      0.9500      0.5000      0.9500      0.9000      0.0100           0
Duffield        B                  2000.0000      0.0000    343.6000    485.6873      1.0000      0.5999      0.9500      0.5000      0.9500      0.9000      0.0100           0
Groseclose      C                  2000.0000      0.0000    299.0000    426.4660      0.7500      0.8031      0.9500      0.5000      0.9500      0.5000      0.0100           0
Groseclose      C                  2000.0000      0.0000    299.0000    426.4660      1.0000      0.7892      0.9500      0.5000      0.9500      0.5000      0.0100           0
Groseclose      C                  2000.0000      0.0000    299.0000    426.4660      0.7500      0.7038      0.9500      0.5000      0.9500      0.5000      0.0100           0
Groseclose      C                  2000.0000      0.0000    299.0000    426.4660      0.7500      0.6837      0.9500      0.5000      0.9500      0.5000      0.0100           0
Groseclose      C                  2000.0000      0.0000    299.0000    426.4660      0.7500      0.4725      0.9500      0.5000      0.9500      0.5000      0.0100           0
Frederick       B                  2000.0000      0.0000    298.1000    392.0720      1.0000      0.6965      0.9500      0.5000      0.9500      0.9000      0.0100           0
Duffield        B                  2000.0000      0.0000    343.6000    485.6873      0.7500      0.8626      0.9500      0.5000      0.9500      0.9000      0.0100           0
Duffield        B                  2000.0000      0.0000    343.6000    485.6873      1.0000      0.6012      0.9500      0.5000      0.9500      0.9000      0.0100           0
Groseclose      C                  2000.0000      0.0000    299.0000    426.4660      1.0000      0.9323      0.9500      0.5000      0.9500      0.5000      0.0100           0
Groseclose      C                  2000.0000      0.0000    299.0000    426.4660      1.0000      0.8069      0.9500      0.5000      0.9500      0.5000      0.0100           0
Duffield        B                  2000.0000      0.0000    343.6000    485.6873      1.0000      0.6645      0.9500      0.5000      0.9500      0.9000      0.0100           0
Duffield        B                  2000.0000      0.0000    343.6000    485.6873      1.0000      0.6829      0.9500      0.5000      0.9500      0.9000      0.0100           0
Groseclose      C                  2000.0000      0.0000    299.0000    426.4660      0.7500      0.6901      0.9500      0.5000      0.9500      0.5000      0.0100           0
Groseclose      C                  2000.0000      0.0000    299.0000    426.4660      0.7500      0.6375      0.9500      0.5000      0.9500      0.5000      0.0100           0
Duffield        B                  2000.0000      0.0000    343.6000    485.6873      0.7500      0.9031      0.9500      0.5000      0.9500      0.9000      0.0100           0
Duffield        B                  2000.0000      0.0000    343.6000    485.6873      0.7500      0.6314      0.9500      0.5000      0.9500      0.9000      0.0100           0
Duffield        B                  2000.0000      0.0000    343.6000    485.6873      1.0000      0.7585      0.9500      0.5000      0.9500      0.9000      0.0100           0
Duffield        B                  2000.0000      0.0000    343.6000    485.6873      1.0000      0.7574      0.9500      0.5000      0.9500      0.9000      0.0100           0
Groseclose      C                  2000.0000      0.0000    299.0000    426.4660      1.0000      0.5371      0.9500      0.5000      0.9500      0.5000      0.0100           0
Frederick       B                  2000.0000      0.0000    298.1000    392.0720      0.7500      0.6786      0.9500      0.5000      0.9500      0.9000      0.0100           0
Groseclose      C                  2000.0000      0.0000    299.0000    426.4660      1.0000      0.7798      0.9500      0.5000      0.9500      0.5000      0.0100           0
Duffield        B                  2000.0000      0.0000    343.6000    485.6873      0.7500      0.7805      0.9500      0.5000      0.9500      0.9000      0.0100           0
Frederick       B                  2000.0000      0.0000    298.1000    392.0720      0.7500      0.8076      0.9500      0.5000      0.9500      0.9000      0.0100           0
Duffield        B                  2000.0000      0.0000    343.6000    485.6873      0.7500      0.7728      0.9500      0.5000      0.9500      0.9000      0.0100           0
[...]
Weaver          C                  2000.0000      0.0000    360.0000    611.0740      0.7500      1.8228      0.9500      0.5000      0.9500      0.5000      0.0100           0
Weaver          C                  2000.0000      0.0000    360.0000    611.0740      0.7500      0.8096      0.9500      0.5000      0.9500      0.5000      0.0100           0
Weaver          C                  2000.0000      0.0000    360.0000    611.0740      0.7500      1.1180      0.9500      0.5000      0.9500      0.5000      0.0100           0
Frederick       B                  2000.0000      0.0000    298.1000    392.0720      0.7500      0.5757      0.9500      0.5000      0.9500      0.9000      0.0100           0
Duffield        B                  2000.0000      0.0000    343.6000    485.6873      0.7500      0.6514      0.9500      0.5000      0.9500      0.9000      0.0100           0
Frederick       B                  2000.0000      0.0000    298.1000    392.0720      0.7500      0.8313      0.9500      0.5000      0.9500      0.9000      0.0100           0
Groseclose      C                  2000.0000      0.0000    299.0000    426.4660      0.7500      0.5069      0.9500      0.5000      0.9500      0.5000      0.0100           0
Groseclose      C                  2000.0000      0.0000    299.0000    426.4660      0.7500      0.7818      0.9500      0.5000      0.9500      0.5000      0.0100           0
Duffield        B                  2000.0000      0.0000    343.6000    485.6873      0.7500      0.6066      0.9500      0.5000      0.9500      0.9000      0.0100           0
Groseclose      C                  2000.0000      0.0000    299.0000    426.4660      0.7500      0.8696      0.9500      0.5000      0.9500      0.5000      0.0100           0
Frederick       B                  2000.0000      0.0000    298.1000    392.0720      0.7500      0.8109      0.9500      0.5000      0.9500      0.9000      0.0100           0
Groseclose      C                  2000.0000      0.0000    299.0000    426.4660      0.7500      0.5715      0.9500      0.5000      0.9500      0.5000      0.0100           0
Groseclose      C                  2000.0000      0.0000    299.0000    426.4660      0.7500      0.4125      0.9500      0.5000      0.9500      0.5000      0.0100           0
Frederick       B                  2000.0000      0.0000    298.1000    392.0720      0.7500      0.9713      0.9500      0.5000      0.9500      0.9000      0.0100           0
Frederick       B                  2000.0000      0.0000    298.1000    392.0720      1.0000      0.6872      0.9500      0.5000      0.9500      0.9000      0.0100           0
Duffield        B                  2000.0000      0.0000    343.6000    485.6873      0.7500      0.6483      0.9500      0.5000      0.9500      0.9000      0.0100           0
Groseclose      C                  2000.0000      0.0000    299.0000    426.4660      0.7500      0.5726      0.9500      0.5000      0.9500      0.5000      0.0100           0
Groseclose      C                  2000.0000      0.0000    299.0000    426.4660      0.7500      0.4803      0.9500      0.5000      0.9500      0.5000      0.0100           0
Groseclose      C                  2000.0000      0.0000    299.0000    426.4660      0.7500      0.9670      0.9500      0.5000      0.9500      0.5000      0.0100           0
Groseclose      C                  2000.0000      0.0000    299.0000    426.4660      0.7500      0.7414      0.9500      0.5000      0.9500      0.5000      0.0100           0
Groseclose      C                  2000.0000      0.0000    299.0000    426.4660      0.7500      0.7745      0.9500      0.5000      0.9500      0.5000      0.0100           0
Groseclose      C                  2000.0000      0.0000    299.0000    426.4660      0.7500      0.7489      0.9500      0.5000      0.9500      0.5000      0.0100           0
Groseclose      C                  2000.0000      0.0000    299.0000    426.4660      0.7500      0.8411      0.9500      0.5000      0.9500      0.5000      0.0100           0
Groseclose      C                  2000.0000      0.0000    299.0000    426.4660      0.7500      0.5640      0.9500      0.5000      0.9500      0.5000      0.0100           0
Groseclose      C                  2000.0000      0.0000    299.0000    426.4660      0.7500      0.6678      0.9500      0.5000      0.9500      0.5000      0.0100           0
Groseclose      C                  2000.0000      0.0000    299.0000    426.4660      0.7500      0.6180      0.9500      0.5000      0.9500      0.5000      0.0100           0
Frederick       B                  2000.0000      0.0000    298.1000    392.0720      0.7500      1.0570      0.9500      0.5000      0.9500      0.9000      0.0100           0
Berks           C                  2000.0000      0.0000     70.0000    919.4141      0.7500      0.6835      0.9500      0.5000      0.9500      0.5000      0.0100           0
Frederick       B                  2000.0000      0.0000    298.1000    392.0720      0.7500      0.6548      0.9500      0.5000      0.9500      0.9000      0.0100           0
Berks           C                  2000.0000      0.0000     70.0000    919.4141      0.7500      0.8822      0.9500      0.5000      0.9500      0.5000      0.0100           0
Frederick       B                  2000.0000      0.0000    298.1000    392.0720      0.7500      0.7548      0.9500      0.5000      0.9500      0.9000      0.0100           0
Groseclose      C                  2000.0000      0.0000    299.0000    426.4660      0.7500      0.7512      0.9500      0.5000      0.9500      0.5000      0.0100           0
Frederick       B                  2000.0000      0.0000    298.1000    392.0720      0.7500      1.1547      0.9500      0.5000      0.9500      0.9000      0.0100           0
Groseclose      C                  2000.0000      0.0000    299.0000    426.4660      0.7500      0.7408      0.9500      0.5000      0.9500      0.5000      0.0100           0
Frederick       B                  2000.0000      0.0000    298.1000    392.0720      0.7500      0.9979      0.9500      0.5000      0.9500      0.9000      0.0100           0
Berks           C                  2000.0000      0.0000     70.0000    919.4141      0.7500      1.0049      0.9500      0.5000      0.9500      0.5000      0.0100           0
Frederick       B                  2000.0000      0.0000    298.1000    392.0720      0.7500      0.7829      0.9500      0.5000      0.9500      0.9000      0.0100           0
Groseclose      C                  2000.0000      0.0000    299.0000    426.4660      0.7500      0.8157      0.9500      0.5000      0.9500      0.5000      0.0100           0
Frederick       B                  2000.0000      0.0000    298.1000    392.0720      0.7500      0.8693      0.9500      0.5000      0.9500      0.9000      0.0100           0
Frederick       B                  2000.0000      0.0000    298.1000    392.0720      0.7500      0.8200      0.9500      0.5000      0.9500      0.9000      0.0100           0
Berks           C                  2000.0000      0.0000     70.0000    919.4141      0.7500      0.6811      0.9500      0.5000      0.9500      0.5000      0.0100           0
Berks           C                  2000.0000      0.0000     70.0000    919.4141      0.7500      0.8736      0.9500      0.5000      0.9500      0.5000      0.0100           0
Frederick       B                  2000.0000      0.0000    298.1000    392.0720      0.7500      0.8959      0.9500      0.5000      0.9500      0.9000      0.0100           0
Berks           C                  2000.0000      0.0000     70.0000    919.4141      0.7500      0.8120      0.9500      0.5000      0.9500      0.5000      0.0100           0
Frederick       B                  2000.0000      0.0000    298.1000    392.0720      0.7500      1.0117      0.9500      0.5000      0.9500      0.9000      0.0100           0
Frederick       B                  2000.0000      0.0000    298.1000    392.0720      0.7500      0.6613      0.9500      0.5000      0.9500      0.9000      0.0100           0
Frederick       B                  2000.0000      0.0000    298.1000    392.0720      0.7500      0.6948      0.9500      0.5000      0.9500      0.9000      0.0100           0
Groseclose      C                  2000.0000      0.0000    299.0000    426.4660      0.7500      0.6633      0.9500      0.5000      0.9500      0.5000      0.0100           0
Guernsey        C                  2110.0000      0.0000    271.8000    457.7601      0.7500      0.7459      0.9500      0.5000      0.9500      0.5000      0.0100           0
Groseclose      C                  2000.0000      0.0000    299.0000    426.4660      0.7500      0.5960      0.9500      0.5000      0.9500      0.5000      0.0100           0
Guernsey        C                  2110.0000      0.0000    271.8000    457.7601      0.7500      0.5444      0.9500      0.5000      0.9500      0.5000      0.0100           0
Frederick       B                  2000.0000      0.0000    298.1000    392.0720      0.7500      0.7368      0.9500      0.5000      0.9500      0.9000      0.0100           0
Groseclose      C                  2000.0000      0.0000    299.0000    426.4660      0.7500      1.0026      0.9500      0.5000      0.9500      0.5000      0.0100           0
Frederick       B                  2000.0000      0.0000    298.1000    392.0720      0.7500      1.2370      0.9500      0.5000      0.9500      0.9000      0.0100           0
Berks           C                  2000.0000      0.0000     70.0000    919.4141      0.7500      0.8787      0.9500      0.5000      0.9500      0.5000      0.0100           0
Groseclose      C                  2000.0000      0.0000    299.0000    426.4660      0.7500      0.7952      0.9500      0.5000      0.9500      0.5000      0.0100           0
Berks           C                  2000.0000      0.0000     70.0000    919.4141      0.7500      0.6131      0.9500      0.5000      0.9500      0.5000      0.0100           0
Frederick       B                  2000.0000      0.0000    298.1000    392.0720      0.7500      0.8000      0.9500      0.5000      0.9500      0.9000      0.0100           0
Groseclose      C                  2000.0000      0.0000    299.0000    426.4660      0.7500      0.8978      0.9500      0.5000      0.9500      0.5000      0.0100           0
Weaver          C                  2000.0000      0.0000    360.0000    611.0740      0.7500      1.3228      0.9500      0.5000      0.9500      0.5000      0.0100           0
Berks           C                  2000.0000      0.0000     70.0000    919.4141      0.7500      0.8462      0.9500      0.5000      0.9500      0.5000      0.0100           0
Berks           C                  2000.0000      0.0000     70.0000    919.4141      0.7500      0.9174      0.9500      0.5000      0.9500      0.5000      0.0100           0
Berks           C                  2000.0000      0.0000     70.0000    919.4141      0.7500      0.6697      0.9500      0.5000      0.9500      0.5000      0.0100           0
Berks           C                  2000.0000      0.0000     70.0000    919.4141      0.7500      0.4384      0.9500      0.5000      0.9500      0.5000      0.0100           0
Frederick       B                  2000.0000      0.0000    298.1000    392.0720      1.0000      0.7401      0.9500      0.5000      0.9500      0.9000      0.0100           0
Groseclose      C                  2000.0000      0.0000    299.0000    426.4660      1.0000      0.5990      0.9500      0.5000      0.9500      0.5000      0.0100           0
Weaver          C                  2000.0000      0.0000    360.0000    611.0740      0.7500      0.8160      0.9500      0.5000      0.9500      0.5000      0.0100           0
Groseclose      C                  2000.0000      0.0000    299.0000    426.4660      1.0000      0.7557      0.9500      0.5000      0.9500      0.5000      0.0100           0
Frederick       B                  2000.0000      0.0000    298.1000    392.0720      0.7500      0.6526      0.9500      0.5000      0.9500      0.9000      0.0100           0
Groseclose      C                  2000.0000      0.0000    299.0000    426.4660      1.0000      0.6278      0.9500      0.5000      0.9500      0.5000      0.0100           0
Frederick       B                  2000.0000      0.0000    298.1000    392.0720      0.7500      0.6819      0.9500      0.5000      0.9500      0.9000      0.0100           0
Groseclose      C                  2000.0000      0.0000    299.0000    426.4660      1.0000      0.8224      0.9500      0.5000      0.9500      0.5000      0.0100           0
Groseclose      C                  2000.0000      0.0000    299.0000    426.4660      0.7500      0.6751      0.9500      0.5000      0.9500      0.5000      0.0100           0
Groseclose      C                  2000.0000      0.0000    299.0000    426.4660      0.7500      0.6848      0.9500      0.5000      0.9500      0.5000      0.0100           0
Groseclose      C                  2000.0000      0.0000    299.0000    426.4660      1.0000      0.6049      0.9500      0.5000      0.9500      0.5000      0.0100           0
Duffield        B                  2000.0000      0.0000    343.6000    485.6873      1.0000      0.6829      0.9500      0.5000      0.9500      0.9000      0.0100           0
Frederick       B                  2000.0000      0.0000    298.1000    392.0720      0.7500      0.5617      0.9500      0.5000      0.9500      0.9000      0.0100           0
Groseclose      C                  2000.0000      0.0000    299.0000    426.4660      0.7500      0.7336      0.9500      0.5000      0.9500      0.5000      0.0100           0
Duffield        B                  2000.0000      0.0000    343.6000    485.6873      0.7500      0.9003      0.9500      0.5000      0.9500      0.9000      0.0100           0
Duffield        B                  2000.0000      0.0000    343.6000    485.6873      0.7500      0.3973      0.9500      0.5000      0.9500      0.9000      0.0100           0
Duffield        B                  2000.0000      0.0000    343.6000    485.6873      0.7500      0.9487      0.9500      0.5000      0.9500      0.9000      0.0100           0
Duffield        B                  2000.0000      0.0000    343.6000    485.6873      0.7500      0.4209      0.9500      0.5000      0.9500      0.9000      0.0100           0
Duffield        B                  2000.0000      0.0000    343.6000    485.6873      1.0000      0.6261      0.9500      0.5000      0.9500      0.9000      0.0100           0
Duffield        B                  2000.0000      0.0000    343.6000    485.6873      1.0000      0.7899      0.9500      0.5000      0.9500      0.9000      0.0100           0
Berks           C                  2000.0000      0.0000     70.0000    919.4141      1.0000      1.0220      0.9500      0.5000      0.9500      0.5000      0.0100           0
Berks           C                  2000.0000      0.0000     70.0000    919.4141      1.0000      1.5053      0.9500      0.5000      0.9500      0.5000      0.0100           0
Berks           C                  2000.0000      0.0000     70.0000    919.4141      1.0000      1.1882      0.9500      0.5000      0.9500      0.5000      0.0100           0
Berks           C                  2000.0000      0.0000     70.0000    919.4141      1.0000      1.5288      0.9500      0.5000      0.9500      0.5000      0.0100           0
Groseclose      C                  2000.0000      0.0000    299.0000    426.4660      0.7500      0.7722      0.9500      0.5000      0.9500      0.5000      0.0100           0
Frederick       B                  2000.0000      0.0000    298.1000    392.0720      0.7500      0.8648      0.9500      0.5000      0.9500      0.9000      0.0100           0
Frederick       B                  2000.0000      0.0000    298.1000    392.0720      0.7500      0.9978      0.9500      0.5000      0.9500      0.9000      0.0100           0
Frederick       B                  2000.0000      0.0000    298.1000    392.0720      0.7500      0.7405      0.9500      0.5000      0.9500      0.9000      0.0100           0
Groseclose      C                  2000.0000      0.0000    299.0000    426.4660      0.7500      0.7483      0.9500      0.5000      0.9500      0.5000      0.0100           0
Frederick       B                  2000.0000      0.0000    298.1000    392.0720      0.7500      0.6138      0.9500      0.5000      0.9500      0.9000      0.0100           0
Frederick       B                  2000.0000      0.0000    298.1000    392.0720      0.7500      0.7827      0.9500      0.5000      0.9500      0.9000      0.0100           0
Frederick       B                  2000.0000      0.0000    298.1000    392.0720      0.7500      0.8991      0.9500      0.5000      0.9500      0.9000      0.0100           0
Frederick       B                  2000.0000      0.0000    298.1000    392.0720      0.7500      1.3187      0.9500      0.5000      0.9500      0.9000      0.0100           0
Frederick       B                  2000.0000      0.0000    298.1000    392.0720      0.7500      0.7433      0.9500      0.5000      0.9500      0.9000      0.0100           0
Frederick       B                  2000.0000      0.0000    298.1000    392.0720      0.7500      0.6040      0.9500      0.5000      0.9500      0.9000      0.0100           0
Frederick       B                  2000.0000      0.0000    298.1000    392.0720      0.7500      0.9473      0.9500      0.5000      0.9500      0.9000      0.0100           0
Berks           C                  2000.0000      0.0000     70.0000    919.4141      1.0000      1.2265      0.9500      0.5000      0.9500      0.5000      0.0100           0
Berks           C                  2000.0000      0.0000     70.0000    919.4141      1.0000      0.9113      0.9500      0.5000      0.9500      0.5000      0.0100           0
Hayter          B                  2000.0000      0.0000    250.8000    638.2129      0.7500      0.8222      0.9500      0.5000      0.9500      0.9000      0.0100           0
Frederick       B                  2000.0000      0.0000    298.1000    392.0720      0.7500      1.3973      0.9500      0.5000      0.9500      0.9000      0.0100           0
Hayter          B                  2000.0000      0.0000    250.8000    638.2129      0.7500      0.7591      0.9500      0.5000      0.9500      0.9000      0.0100           0
Hayter          B                  2000.0000      0.0000    250.8000    638.2129      1.0000      0.9606      0.9500      0.5000      0.9500      0.9000      0.0100           0
Groseclose      C                  2000.0000      0.0000    299.0000    426.4660      0.7500      0.8154      0.9500      0.5000      0.9500      0.5000      0.0100           0
Groseclose      C                  2000.0000      0.0000    299.0000    426.4660      0.7500      0.6331      0.9500      0.5000      0.9500      0.5000      0.0100           0
Groseclose      C                  2000.0000      0.0000    299.0000    426.4660      0.7500      1.3140      0.9500      0.5000      0.9500      0.5000      0.0100           0
Groseclose      C                  2000.0000      0.0000    299.0000    426.4660      0.7500      0.9986      0.9500      0.5000      0.9500      0.5000      0.0100           0
Groseclose      C                  2000.0000      0.0000    299.0000    426.4660      0.7500      0.9987      0.9500      0.5000      0.9500      0.5000      0.0100           0
Groseclose      C                  2000.0000      0.0000    299.0000    426.4660      0.7500      3.0136      0.9500      0.5000      0.9500      0.5000      0.0100           0
