recall.rec: written by SWAT+ editor v2.3.3 on 2025-01-22 11:47 for SWAT+ rev.60.5.7
      id  name               rec_typ  file              
       1  pt044                    1  pt044.rec         
