                   SWAT+               
             Revision 61.0            
      Soil & Water Assessment Tool    
               PC Version             
    Program reading . . . executing


  Date of Sim   3/ 6/2025 Time  13: 9:27
 reading from pet file                   Time  13: 9:27
 reading from precipitation file         Time  13: 9:27
 reading from temperature file           Time  13: 9:27
 reading from solar radiation file       Time  13: 9:27
 reading from relative humidity file     Time  13: 9:27
 reading from wind file                  Time  13: 9:27
 reading from wgn file                   Time  13: 9:27
 reading from wx station file            Time  13: 9:27
